version 2
run WithChannelSwitching-0-20180612-18:35:43-3941
attr configname WithChannelSwitching
attr datetime 20180612-18:35:43
attr experiment WithChannelSwitching
attr inifile omnetpp.ini
attr iterationvars $margin=25
attr iterationvars2 "$margin=25, $repetition=0"
attr margin 25
attr measurement $margin=25
attr network RSUExampleScenario4
attr processid 3941
attr repetition 0
attr replication #0
attr resultdir results
attr runnumber 0
attr seedset 0
param **.coreDebug false
param **.debug false
param *.**.nic.mac1609_4.bitrate 6Mbps
param *.**.nic.mac1609_4.txPower 20mW
param *.**.nic.mac1609_4.useServiceChannel false
param *.**.nic.phy80211p.analogueModels "xmldoc(\"config.xml\")"
param *.**.nic.phy80211p.antenna "xmldoc(\"antenna.xml\", \"/root/Antenna[@id='monopole']\")"
param *.**.nic.phy80211p.decider "xmldoc(\"config.xml\")"
param *.**.nic.phy80211p.sensitivity -89dBm
param *.**.nic.phy80211p.thermalNoise -110dBm
param *.**.nic.phy80211p.usePropagationDelay true
param *.**.nic.phy80211p.useThermalNoise true
param *.annotations.draw true
param *.connectionManager.drawMaxIntfDist false
param *.connectionManager.maxInterfDist 2600m
param *.connectionManager.sendDirect true
param *.manager.autoShutdown true
param *.manager.host "\"localhost\""
param *.manager.launchConfig "xmldoc(\"Coruna.launchd.xml\")"
param *.manager.margin ${margin=25}
param *.manager.port 9999
param *.manager.updateInterval 1s
param *.node[*].appl.beaconInterval 1s
param *.node[*].appl.dataOnSch false
param *.node[*].appl.headerLength "80 bit"
param *.node[*].appl.sendBeacons true
param *.node[*].applType "\"TraCI11p4\""
param *.node[*].veinsmobility.x 0
param *.node[*].veinsmobility.y 0
param *.node[*].veinsmobility.z 1.895
param *.node[*].veinsmobilityType.debug true
param *.playgroundSizeX 9999m
param *.playgroundSizeY 9999m
param *.playgroundSizeZ 50m
param *.rsu[*].appl.beaconInterval 1s
param *.rsu[*].appl.beaconPriority 3
param *.rsu[*].appl.dataOnSch false
param *.rsu[*].appl.dataPriority 2
param *.rsu[*].appl.headerLength "80 bit"
param *.rsu[*].appl.sendBeacons true
param *.rsu[*].applType "\"TraCIRSU11p4\""
param *.rsu[0].veinsmobility.x "6074.3 + ${margin}"
param *.rsu[0].veinsmobility.y "6001.1 + ${margin}"
param *.rsu[0].veinsmobility.z 3

vector 4  RSUExampleScenario4.node[0].veinsmobility  posx  ETV
vector 5  RSUExampleScenario4.node[0].veinsmobility  posy  ETV
vector 6  RSUExampleScenario4.node[0].veinsmobility  speed  ETV
vector 7  RSUExampleScenario4.node[0].veinsmobility  acceleration  ETV
vector 8  RSUExampleScenario4.node[0].veinsmobility  co2emission  ETV
vector 11  RSUExampleScenario4.node[1].veinsmobility  posx  ETV
vector 12  RSUExampleScenario4.node[1].veinsmobility  posy  ETV
vector 13  RSUExampleScenario4.node[1].veinsmobility  speed  ETV
vector 14  RSUExampleScenario4.node[1].veinsmobility  acceleration  ETV
vector 15  RSUExampleScenario4.node[1].veinsmobility  co2emission  ETV
vector 18  RSUExampleScenario4.node[2].veinsmobility  posx  ETV
vector 19  RSUExampleScenario4.node[2].veinsmobility  posy  ETV
vector 20  RSUExampleScenario4.node[2].veinsmobility  speed  ETV
vector 21  RSUExampleScenario4.node[2].veinsmobility  acceleration  ETV
vector 22  RSUExampleScenario4.node[2].veinsmobility  co2emission  ETV
vector 25  RSUExampleScenario4.node[3].veinsmobility  posx  ETV
vector 26  RSUExampleScenario4.node[3].veinsmobility  posy  ETV
vector 27  RSUExampleScenario4.node[3].veinsmobility  speed  ETV
vector 28  RSUExampleScenario4.node[3].veinsmobility  acceleration  ETV
vector 29  RSUExampleScenario4.node[3].veinsmobility  co2emission  ETV
vector 32  RSUExampleScenario4.node[4].veinsmobility  posx  ETV
vector 33  RSUExampleScenario4.node[4].veinsmobility  posy  ETV
vector 34  RSUExampleScenario4.node[4].veinsmobility  speed  ETV
vector 35  RSUExampleScenario4.node[4].veinsmobility  acceleration  ETV
vector 36  RSUExampleScenario4.node[4].veinsmobility  co2emission  ETV
vector 39  RSUExampleScenario4.node[5].veinsmobility  posx  ETV
vector 40  RSUExampleScenario4.node[5].veinsmobility  posy  ETV
vector 41  RSUExampleScenario4.node[5].veinsmobility  speed  ETV
vector 42  RSUExampleScenario4.node[5].veinsmobility  acceleration  ETV
vector 43  RSUExampleScenario4.node[5].veinsmobility  co2emission  ETV
vector 46  RSUExampleScenario4.node[6].veinsmobility  posx  ETV
vector 47  RSUExampleScenario4.node[6].veinsmobility  posy  ETV
vector 48  RSUExampleScenario4.node[6].veinsmobility  speed  ETV
vector 49  RSUExampleScenario4.node[6].veinsmobility  acceleration  ETV
vector 50  RSUExampleScenario4.node[6].veinsmobility  co2emission  ETV
vector 53  RSUExampleScenario4.node[7].veinsmobility  posx  ETV
vector 54  RSUExampleScenario4.node[7].veinsmobility  posy  ETV
vector 55  RSUExampleScenario4.node[7].veinsmobility  speed  ETV
vector 56  RSUExampleScenario4.node[7].veinsmobility  acceleration  ETV
vector 57  RSUExampleScenario4.node[7].veinsmobility  co2emission  ETV
vector 60  RSUExampleScenario4.node[8].veinsmobility  posx  ETV
vector 61  RSUExampleScenario4.node[8].veinsmobility  posy  ETV
vector 62  RSUExampleScenario4.node[8].veinsmobility  speed  ETV
vector 63  RSUExampleScenario4.node[8].veinsmobility  acceleration  ETV
vector 64  RSUExampleScenario4.node[8].veinsmobility  co2emission  ETV
vector 67  RSUExampleScenario4.node[9].veinsmobility  posx  ETV
vector 68  RSUExampleScenario4.node[9].veinsmobility  posy  ETV
vector 69  RSUExampleScenario4.node[9].veinsmobility  speed  ETV
vector 70  RSUExampleScenario4.node[9].veinsmobility  acceleration  ETV
vector 71  RSUExampleScenario4.node[9].veinsmobility  co2emission  ETV
8	155	3	3.9690439751639
8	218	4	4.8734986088453
8	325	5	6.2068327255978
8	433	6	7.2118621755177
8	541	7	8.2287933875323
8	705	8	3.4112383357952
8	870	9	2.4244807387756
8	1035	10	1.8137009457961
8	1268	11	2.2898099022095
8	1502	12	2.0020020998074
8	1736	13	1.8482360798459
8	2050	14	2.0456752375859
8	2365	15	1.9700834342329
8	2680	16	2.0938888010057
8	3087	17	1.859207449473
8	3495	18	2.4171230160978
8	3903	19	2.0237034716781
8	4415	20	1.8521438049225
8	4928	21	2.1257236745966
8	5441	22	2.0366294719502
8	6070	23	1.74537163726
8	6700	24	2.1502956540601
8	7330	25	2.2389467531681
8	8029	26	1.7848725270982
8	8788	27	2.051730205351
8	9547	28	2.2427409462865
8	10446	29	1.7022147078037
8	11354	30	2.3567141215104
8	12262	31	1.6997119428615
8	13170	32	2.2043970256493
8	14086	33	2.1439694939352
8	14994	34	2.1564722740192
8	15902	35	2.0217407169646
8	16818	36	1.9568042668072
8	17734	37	2.145920252644
8	18650	38	1.8207078101042
8	19574	39	1.8186071382616
8	20498	40	2.1510132067525
8	21422	41	2.0119882384581
8	22354	42	2.3359468166122
8	23286	43	1.775330738218
8	24218	44	2.1346075624456
8	25158	45	2.0662325299728
8	26098	46	2.157082246279
8	27038	47	1.8809712392017
8	27986	48	2.1292854758746
8	28934	49	1.6913510140728
8	29882	50	2.1904640554482
8	30838	51	2.1480196234141
8	31794	52	2.0489706365036
8	32750	53	1.9900702104634
8	33714	54	2.0974543255234
8	34686	55	1.9337032225021
8	35650	56	2.0148527118992
8	36630	57	1.8940306389499
8	37610	58	2.3856843650358
8	38590	59	1.7136586749769
8	39570	60	2.2664637521245
8	40550	61	1.8875519823534
8	41530	62	2.2708905792883
8	42510	63	1.9736903386949
8	43490	64	1.88164071282
8	44470	65	2.239309211151
8	45450	66	1.8711837301913
8	46430	67	2.1426722879236
8	47410	68	2.0155587191007
8	48390	69	1.9926764065536
8	49370	70	2.0365392463298
8	50350	71	1.8715564033136
8	51330	72	2.083625988134
8	52310	73	2.233965911484
8	53290	74	2.0634305841529
8	54270	75	1.9406606069495
8	55250	76	2.0824526225274
8	56230	77	1.8489611669918
8	57210	78	2.241657543862
8	58190	79	1.6676182086359
8	59170	80	2.3622318231771
8	60134	81	2.1128808020829
8	61106	82	1.8964587693435
8	62078	83	1.9847339893771
8	63042	84	0.973
8	64006	85	0.973
8	64962	86	1.9593237032113
8	65910	87	1.7842676314402
8	66858	88	1.745938978458
8	67814	89	1.8499633786101
8	68762	90	1.6812376940549
8	69710	91	1.6573724731044
8	70658	92	1.7287503309909
8	71598	93	1.977369263524
8	72538	94	1.574233910225
8	73470	95	7.3868990483058
8	74402	96	5.8845097014466
8	75334	97	1.9275946069647
8	76258	98	2.1878631846669
8	77182	99	2.2028086037215
8	78106	100	1.9273485383516
8	79030	101	2.0046938063708
8	79946	102	1.9628040649542
8	80862	103	0.973
8	81778	104	0.973
8	82686	105	0.973
8	83594	106	0.973
8	84502	107	5.2327680411042
8	85402	108	6.1762808306582
8	86302	109	7.2297343606895
8	87202	110	8.345056807376
8	88102	111	6.1980454902718
8	89002	112	2.0399867035562
8	89902	113	2.1271367587052
8	90802	114	1.7855408199475
8	91702	115	2.0656347489096
8	92602	116	2.1728402978097
8	93502	117	1.9114531078799
8	94402	118	1.4610818628206
8	95302	119	2.190919103473
8	96202	120	1.8541710922738
8	97102	121	2.1888741134748
8	98002	122	2.2115249101463
8	98902	123	0.973
8	99802	124	0.973
8	100702	125	0.973
8	101602	126	0.973
8	102502	127	4.934877206558
8	103402	128	0.973
8	104302	129	3.7286872898042
8	105202	130	0.973
8	106102	131	0.973
8	107002	132	5.2787292699114
8	107902	133	4.8032011918402
8	108802	134	6.7830833548282
8	109702	135	7.6253622690089
8	110602	136	7.4572400209257
8	111502	137	1.7334941768738
8	112402	138	2.403173705104
8	113302	139	1.9241252454372
8	114202	140	1.8049492809789
8	115102	141	2.3036508077419
8	116002	142	1.7355431274145
8	116902	143	2.1769509453526
8	117802	144	2.1861925756188
8	118702	145	1.8321036631256
8	119602	146	2.0898596501947
8	120510	147	0.973
8	121418	148	0.973
8	122326	149	0.973
8	123234	150	0.973
8	124150	151	0.973
8	125066	152	0.973
8	125982	153	0.973
8	126906	154	0.973
8	127830	155	1.11
8	128754	156	1.11
8	129686	157	1.11
8	130618	158	1.11
8	131550	159	1.11
8	132490	160	1.11
8	133430	161	1.11
8	134370	162	1.11
8	135318	163	1.11
8	136266	164	1.11
8	137214	165	1.11
8	138162	166	1.11
8	139118	167	1.11
8	140074	168	1.11
8	141030	169	1.11
8	141994	170	1.11
8	142958	171	1.11
8	143922	172	1.11
8	144886	173	1.11
8	145858	174	1.11
8	146830	175	1.11
8	147802	176	1.11
8	148774	177	1.11
8	149746	178	1.11
8	150718	179	1.11
8	151690	180	1.11
8	152662	181	1.11
8	153634	182	1.11
8	154606	183	1.11
8	155578	184	1.11
8	156550	185	1.11
8	157522	186	1.11
8	158494	187	1.11
8	159466	188	1.11
8	160438	189	1.11
8	161410	190	1.11
8	162382	191	1.11
8	163354	192	1.11
8	164326	193	1.11
8	165298	194	1.11
8	166270	195	1.11
8	167242	196	1.11
8	168214	197	1.11
8	169186	198	1.11
8	170158	199	1.11
8	171130	200	1.11
8	172102	201	1.11
8	173074	202	1.11
8	174046	203	1.11
8	175018	204	1.11
8	175990	205	1.11
8	176962	206	1.11
8	177934	207	1.11
8	178906	208	1.11
8	179878	209	1.11
8	180850	210	1.11
8	181822	211	1.11
8	182794	212	1.11
8	183766	213	1.11
8	184738	214	1.11
8	185710	215	1.11
8	186682	216	1.11
8	187654	217	1.11
8	188626	218	1.11
8	189598	219	1.11
8	190570	220	1.11
8	191542	221	1.11
8	192514	222	1.11
8	193486	223	1.11
8	194458	224	1.11
8	195430	225	1.11
8	196402	226	1.11
8	197374	227	1.11
8	198346	228	1.11
8	199318	229	1.11
8	200290	230	1.11
8	201262	231	1.11
8	202234	232	1.11
8	203206	233	1.11
8	204178	234	1.11
8	205150	235	1.11
8	206122	236	1.11
8	207094	237	1.11
8	208066	238	1.11
8	209038	239	1.11
8	210010	240	1.11
8	210982	241	1.11
8	211954	242	1.11
8	212926	243	1.11
8	213898	244	1.11
8	214870	245	2.4567341380438
8	215842	246	4.2549545626981
8	216814	247	4.9995446447287
8	217794	248	5.5138011604301
8	218774	249	6.5264902816532
8	219754	250	7.5245047601492
8	220734	251	5.9148367481191
8	221714	252	0.973
8	222694	253	0.973
8	223674	254	1.3924298266336
8	224654	255	1.6283939120222
8	225634	256	1.6241949429492
8	226614	257	1.5664612542978
8	227594	258	1.6485566387217
8	228574	259	1.4856818049529
8	229554	260	0.973
8	230526	261	0.973
8	231506	262	1.7051763812323
8	232486	263	2.4980470260755
8	233458	264	0.973
8	234430	265	4.7188401980212
8	235394	266	1.4670647842227
8	236366	267	0.973
8	237330	268	4.2963576972306
8	238294	269	5.4215892118044
8	239250	270	2.6050108799105
8	240198	271	1.6551557349771
8	241146	272	1.372289464226
8	242086	273	1.5527416170267
8	243026	274	1.6536061311492
8	243958	275	1.6263397532028
8	244898	276	1.426512119591
8	245838	277	1.7203770273509
8	246762	278	1.3667201740395
8	247686	279	1.5726866631761
8	248618	280	1.5550490213152
8	249534	281	1.6742981583885
7	155	3	1.8350836683181
7	218	4	1.8271086537745
7	325	5	1.9700068054721
7	433	6	1.9440954117314
7	541	7	1.9251633647294
7	705	8	0.4143542271355
7	870	9	0.11476667602547
7	1035	10	-0.064753184660804
7	1268	11	0.074470334358047
7	1502	12	-0.010534379172604
7	1736	13	-0.054705263138748
7	2050	14	0.0039751141518352
7	2365	15	-0.018007996121888
7	2680	16	0.018320323363879
7	3087	17	-0.050210119087716
7	3495	18	0.11217186692171
7	3903	19	-0.0043140294868493
7	4415	20	-0.053758448585867
7	4928	21	0.026805718403775
7	5441	22	0.00032772323349484
7	6070	23	-0.084154344759881
7	6700	24	0.03568891238654
7	7330	25	0.060029244376347
7	8029	26	-0.072922072419898
7	8788	27	0.0065030131535604
7	9547	28	0.061332354836631
7	10446	29	-0.096905982799361
7	11354	30	0.095237014018931
7	12262	31	-0.09759918164462
7	13170	32	0.051569854710252
7	14086	33	0.0325006971322
7	14994	34	0.035062164356933
7	15902	35	-0.0047448955359872
7	16818	36	-0.023336166569498
7	17734	37	0.0318114678422
7	18650	38	-0.062966373872479
7	19574	39	-0.061988320339005
7	20498	40	0.036238498971798
7	21422	41	-0.0050835033482883
7	22354	42	0.08834209022578
7	23286	43	-0.076017370230984
7	24218	44	0.030126308444887
7	25158	45	0.0094880993640984
7	26098	46	0.03533503852319
7	27038	47	-0.045323354606516
7	27986	48	0.027662657566834
7	28934	49	-0.10006737689721
7	29882	50	0.047599693066442
7	30838	51	0.033836682678666
7	31794	52	0.0042544967215505
7	32750	53	-0.012874606626575
7	33714	54	0.018488329288084
7	34686	55	-0.029338543671184
7	35650	56	-0.0050247061857949
7	36630	57	-0.039916744376534
7	37610	58	0.10304369377671
7	38590	59	-0.094011269372421
7	39570	60	0.068588698119855
7	40550	61	-0.042804035579319
7	41530	62	0.068978192890063
7	42510	63	-0.018603318962269
7	43490	64	-0.044719185403082
7	44470	65	0.059738336696755
7	45450	66	-0.048146199975163
7	46430	67	0.031616960573009
7	47410	68	-0.0059490681299934
7	48390	69	-0.012381333564408
7	49370	70	0.00064061800017967
7	50350	71	-0.047139536901378
7	51330	72	0.015631682239473
7	52310	73	0.058406609068625
7	53290	74	0.0075681246118631
7	54270	75	-0.028047287091614
7	55250	76	0.013660728272516
7	56230	77	-0.054224495142698
7	57210	78	0.060700888633729
7	58190	79	-0.1072189374757
7	59170	80	0.096866954867728
7	60134	81	0.022110856692306
7	61106	82	-0.040934769869782
7	62078	83	-0.014266016422772
7	63042	84	-2.3843853704934
7	64006	85	-0.5697691545845
7	64962	86	0.071695556303021
7	65910	87	0.005819925540127
7	66858	88	-0.0083064265968282
7	67814	89	0.029741859983186
7	68762	90	-0.032514993548393
7	69710	91	-0.040380014723633
7	70658	92	-0.013094987967051
7	71598	93	0.077747459816747
7	72538	94	-0.071541041031015
7	73470	95	1.7752338773082
7	74402	96	1.147914495985
7	75334	97	-0.03009295939235
7	76258	98	0.046060312874616
7	77182	99	0.048849392097909
7	78106	100	-0.031939584196079
7	79030	101	-0.0086922448663973
7	79946	102	-0.020556570820045
7	80862	103	-2.5268903011589
7	81778	104	-3.1605377058895
7	82686	105	-2.7642675358463
7	83594	106	-1.7583315526607
7	84502	107	2.5240387826296
7	85402	108	2.2474548023986
7	86302	109	2.1438020390621
7	87202	110	2.0955808827863
7	88102	111	1.2364455009984
7	89002	112	0.0012552621657953
7	89902	113	0.026291518572252
7	90802	114	-0.073144959616474
7	91702	115	0.010017735927832
7	92602	116	0.040590838948264
7	93502	117	-0.036025844593532
7	94402	118	-0.16706397352507
7	95302	119	0.051107881891076
7	96202	120	-0.048682246631943
7	97102	121	0.050434339165221
7	98002	122	0.055327814626605
7	98902	123	-3.3600437126285
7	99802	124	-3.1439488805069
7	100702	125	-2.631277947626
7	101602	126	-0.27540544428436
7	102502	127	2.1728118268168
7	103402	128	-0.20349923057882
7	104302	129	1.2001755880437
7	105202	130	-2.6817962384499
7	106102	131	-0.76498886048812
7	107002	132	2.4055006969208
7	107902	133	1.6354939435679
7	108802	134	2.0490127538703
7	109702	135	1.9524205206963
7	110602	136	1.6264747477195
7	111502	137	-0.085077632735482
7	112402	138	0.11231166916899
7	113302	139	-0.029982041246257
7	114202	140	-0.064024148371537
7	115102	141	0.082975313994103
7	116002	142	-0.08485833305167
7	116902	143	0.046383362640627
7	117802	144	0.047544369911774
7	118702	145	-0.056782459272071
7	119602	146	0.019927285516168
7	120510	147	-2.8832913192681
7	121418	148	-3.1181765304624
7	122326	149	-2.6797747335375
7	123234	150	-2.2442468733857
7	124150	151	-1.4850011712965
7	125066	152	-0.83065763677523
7	125982	153	-0.16901283670506
7	126906	154	-0.43790421786761
7	127830	155	-6.8668132724633e-13
7	128754	156	-8.0808563595645e-16
7	129686	157	1.488431755737e-15
7	130618	158	-1.5007540071751e-15
7	131550	159	1.1107205438823e-15
7	132490	160	-6.4036523865142e-16
7	133430	161	4.4306410595147e-16
7	134370	162	8.6936122974705e-16
7	135318	163	-1.906319344052e-15
7	136266	164	-2.3164106938181e-16
7	137214	165	1.9721611185001e-15
7	138162	166	-1.2207030153969e-15
7	139118	167	5.2639065949777e-16
7	140074	168	-2.0770060639583e-16
7	141030	169	-4.2016705386152e-16
7	141994	170	-6.69760995642e-16
7	142958	171	1.1363341749095e-15
7	143922	172	-8.7184430177696e-16
7	144886	173	2.1971839946819e-16
7	145858	174	9.1637905342268e-16
7	146830	175	-1.1177485525995e-15
7	147802	176	7.7032687477274e-17
7	148774	177	-2.2389570952433e-16
7	149746	178	8.2064780506924e-16
7	150718	179	-3.1594250926334e-16
7	151690	180	7.8394124797754e-16
7	152662	181	6.7721387375682e-16
7	153634	182	-2.7338591209433e-16
7	154606	183	7.8560798079337e-17
7	155578	184	-1.019997152656e-15
7	156550	185	8.0906747669302e-16
7	157522	186	-9.5672190861265e-16
7	158494	187	1.6181002397449e-15
7	159466	188	-1.3383813204921e-16
7	160438	189	-3.9300961966541e-16
7	161410	190	-4.3938651724167e-16
7	162382	191	8.2856560195121e-16
7	163354	192	-4.2758030561848e-16
7	164326	193	4.4911074975081e-16
7	165298	194	-8.9710065634103e-16
7	166270	195	-1.4385938881301e-16
7	167242	196	8.3904386588483e-16
7	168214	197	-2.0007860620079e-15
7	169186	198	1.0416426059441e-15
7	170158	199	-1.7301633985481e-16
7	171130	200	-7.5967420883911e-16
7	172102	201	1.2440566227401e-15
7	173074	202	1.4173755321384e-17
7	174046	203	8.5861322108881e-16
7	175018	204	-8.6837400158679e-16
7	175990	205	-4.7442167226878e-16
7	176962	206	-7.4168497800085e-16
7	177934	207	1.972907490689e-15
7	178906	208	-4.3189317953044e-16
7	179878	209	-1.615895124203e-15
7	180850	210	2.2474782880259e-15
7	181822	211	-1.7296790784965e-15
7	182794	212	1.4507759064636e-15
7	183766	213	-2.1486127013807e-16
7	184738	214	-2.6642881926032e-16
7	185710	215	-5.0749609245224e-16
7	186682	216	9.4516279141067e-16
7	187654	217	-7.878195415662e-16
7	188626	218	-3.715951224296e-16
7	189598	219	1.2444403065843e-15
7	190570	220	-1.0784688647865e-15
7	191542	221	9.3981151159266e-16
7	192514	222	-5.9938646846657e-16
7	193486	223	-5.5221198260105e-16
7	194458	224	5.5387885549434e-16
7	195430	225	8.1520137930211e-16
7	196402	226	-2.0751874132428e-15
7	197374	227	1.4853668069287e-15
7	198346	228	1.4007610998983e-16
7	199318	229	-8.1589183723707e-16
7	200290	230	2.7139829182746e-16
7	201262	231	3.6382146970391e-16
7	202234	232	4.3713273145171e-16
7	203206	233	-1.3499924247763e-16
7	204178	234	-1.4803190627439e-15
7	205150	235	1.4636617340043e-15
7	206122	236	-1.4476026866703e-16
7	207094	237	-1.6762433307031e-16
7	208066	238	-6.8656365641708e-16
7	209038	239	-4.7669523899763e-16
7	210010	240	1.7606303851518e-15
7	210982	241	-3.5029776663978e-16
7	211954	242	-3.4749305396453e-16
7	212926	243	3.0551006233323e-16
7	213898	244	-1.365282736999e-15
7	214870	245	2.2650112793499
7	215842	246	2.5188823209592
7	216814	247	2.119447604341
7	217794	248	1.8564365484728
7	218774	249	1.8707222354529
7	219754	250	1.8692773314752
7	220734	251	1.184937071865
7	221714	252	-3.1432884779875
7	222694	253	-2.2430523168412
7	223674	254	-0.083379649005366
7	224654	255	0.034492860268802
7	225634	256	0.031208354597911
7	226614	257	0.0022037064679896
7	227594	258	0.041712569727096
7	228574	259	-0.03836075381143
7	229554	260	-1.2668409001804
7	230526	261	-2.6607662036025
7	231506	262	0.31936505832068
7	232486	263	0.83324119320991
7	233458	264	-1.930858849206
7	234430	265	2.3230407182616
7	235394	266	0.03577334180215
7	236366	267	-2.3785589377165
7	237330	268	2.1164020302425
7	238294	269	2.0823880256852
7	239250	270	0.52255995714814
7	240198	271	0.044912253036163
7	241146	272	-0.09395473955432
7	242086	273	-0.0029102639667684
7	243026	274	0.046123789739795
7	243958	275	0.03127982042497
7	244898	276	-0.066823626069818
7	245838	277	0.077777975543867
7	246762	278	-0.096517613695468
7	247686	279	0.0071794880297968
7	248618	280	-0.0016583266179069
7	249534	281	0.056196924734394
6	92	2	3.9572089270348
6	155	3	5.7922925953529
6	218	4	7.6194012491274
6	325	5	9.5894080545995
6	433	6	11.533503466331
6	541	7	13.45866683106
6	705	8	13.873021058196
6	870	9	13.987787734221
6	1035	10	13.92303454956
6	1268	11	13.997504883918
6	1502	12	13.986970504746
6	1736	13	13.932265241607
6	2050	14	13.936240355759
6	2365	15	13.918232359637
6	2680	16	13.936552683001
6	3087	17	13.886342563913
6	3495	18	13.998514430835
6	3903	19	13.994200401348
6	4415	20	13.940441952762
6	4928	21	13.967247671166
6	5441	22	13.967575394399
6	6070	23	13.88342104964
6	6700	24	13.919109962026
6	7330	25	13.979139206402
6	8029	26	13.906217133983
6	8788	27	13.912720147136
6	9547	28	13.974052501973
6	10446	29	13.877146519173
6	11354	30	13.972383533192
6	12262	31	13.874784351548
6	13170	32	13.926354206258
6	14086	33	13.95885490339
6	14994	34	13.993917067747
6	15902	35	13.989172172211
6	16818	36	13.965836005642
6	17734	37	13.997647473484
6	18650	38	13.934681099611
6	19574	39	13.872692779272
6	20498	40	13.908931278244
6	21422	41	13.903847774896
6	22354	42	13.992189865122
6	23286	43	13.916172494891
6	24218	44	13.946298803336
6	25158	45	13.9557869027
6	26098	46	13.991121941223
6	27038	47	13.945798586616
6	27986	48	13.973461244183
6	28934	49	13.873393867286
6	29882	50	13.920993560352
6	30838	51	13.954830243031
6	31794	52	13.959084739753
6	32750	53	13.946210133126
6	33714	54	13.964698462414
6	34686	55	13.935359918743
6	35650	56	13.930335212557
6	36630	57	13.890418468181
6	37610	58	13.993462161957
6	38590	59	13.899450892585
6	39570	60	13.968039590705
6	40550	61	13.925235555125
6	41530	62	13.994213748015
6	42510	63	13.975610429053
6	43490	64	13.93089124365
6	44470	65	13.990629580347
6	45450	66	13.942483380372
6	46430	67	13.974100340945
6	47410	68	13.968151272815
6	48390	69	13.95576993925
6	49370	70	13.95641055725
6	50350	71	13.909271020349
6	51330	72	13.924902702589
6	52310	73	13.983309311657
6	53290	74	13.990877436269
6	54270	75	13.962830149177
6	55250	76	13.97649087745
6	56230	77	13.922266382307
6	57210	78	13.982967270941
6	58190	79	13.875748333465
6	59170	80	13.972615288333
6	60134	81	13.994726145025
6	61106	82	13.953791375156
6	62078	83	13.939525358733
6	63042	84	11.555139988239
6	64006	85	10.985370833655
6	64962	86	11.057066389958
6	65910	87	11.062886315498
6	66858	88	11.054579888901
6	67814	89	11.084321748884
6	68762	90	11.051806755336
6	69710	91	11.011426740612
6	70658	92	10.998331752645
6	71598	93	11.076079212462
6	72538	94	11.004538171431
6	73470	95	12.779772048739
6	74402	96	13.927686544724
6	75334	97	13.897593585332
6	76258	98	13.943653898207
6	77182	99	13.992503290304
6	78106	100	13.960563706108
6	79030	101	13.951871461242
6	79946	102	13.931314890422
6	80862	103	11.404424589263
6	81778	104	8.2438868833735
6	82686	105	5.4796193475272
6	83594	106	3.7212877948665
6	84502	107	6.2453265774962
6	85402	108	8.4927813798947
6	86302	109	10.636583418957
6	87202	110	12.732164301743
6	88102	111	13.968609802742
6	89002	112	13.969865064907
6	89902	113	13.99615658348
6	90802	114	13.923011623863
6	91702	115	13.933029359791
6	92602	116	13.973620198739
6	93502	117	13.937594354146
6	94402	118	13.770530380621
6	95302	119	13.821638262512
6	96202	120	13.77295601588
6	97102	121	13.823390355045
6	98002	122	13.878718169672
6	98902	123	10.518674457043
6	99802	124	7.3747255765362
6	100702	125	4.7434476289102
6	101602	126	4.4680421846258
6	102502	127	6.6408540114426
6	103402	128	6.4373547808638
6	104302	129	7.6375303689074
6	105202	130	4.9557341304575
6	106102	131	4.1907452699694
6	107002	132	6.5962459668901
6	107902	133	8.231739910458
6	108802	134	10.280752664328
6	109702	135	12.233173185025
6	110602	136	13.859647932744
6	111502	137	13.774570300009
6	112402	138	13.886881969178
6	113302	139	13.856899927931
6	114202	140	13.79287577956
6	115102	141	13.875851093554
6	116002	142	13.790992760502
6	116902	143	13.837376123143
6	117802	144	13.884920493055
6	118702	145	13.828138033783
6	119602	146	13.848065319299
6	120510	147	10.964774000031
6	121418	148	7.8465974695683
6	122326	149	5.1668227360308
6	123234	150	2.9225758626451
6	124150	151	1.4375746913486
6	125066	152	0.60691705457341
6	125982	153	0.43790421786834
6	126906	154	7.3323824150087e-13
6	127830	155	4.6556914254539e-14
6	128754	156	4.5748828618582e-14
6	129686	157	4.7237260374319e-14
6	130618	158	4.5736506367144e-14
6	131550	159	4.6847226911027e-14
6	132490	160	4.6206861672375e-14
6	133430	161	4.6649925778327e-14
6	134370	162	4.7519287008074e-14
6	135318	163	4.5612967664022e-14
6	136266	164	4.538132659464e-14
6	137214	165	4.735348771314e-14
6	138162	166	4.6132784697743e-14
6	139118	167	4.6659175357241e-14
6	140074	168	4.6451474750845e-14
6	141030	169	4.6031307696984e-14
6	141994	170	4.5361546701342e-14
6	142958	171	4.6497880876251e-14
6	143922	172	4.5626036574474e-14
6	144886	173	4.5845754973942e-14
6	145858	174	4.6762134027365e-14
6	146830	175	4.5644385474765e-14
6	147802	176	4.5721418162243e-14
6	148774	177	4.5497522452718e-14
6	149746	178	4.6318170257788e-14
6	150718	179	4.6002227748524e-14
6	151690	180	4.6786168996502e-14
6	152662	181	4.7463382870259e-14
6	153634	182	4.7189996958164e-14
6	154606	183	4.7268557756244e-14
6	155578	184	4.6248560603588e-14
6	156550	185	4.7057628080281e-14
6	157522	186	4.6100906171668e-14
6	158494	187	4.7719006411413e-14
6	159466	188	4.7585168279364e-14
6	160438	189	4.7192158659698e-14
6	161410	190	4.6752772142457e-14
6	162382	191	4.7581337744408e-14
6	163354	192	4.7153757438789e-14
6	164326	193	4.760286818854e-14
6	165298	194	4.6705767532199e-14
6	166270	195	4.6561908143386e-14
6	167242	196	4.7400952009271e-14
6	168214	197	4.5400165947263e-14
6	169186	198	4.6441808553207e-14
6	170158	199	4.6268792213352e-14
6	171130	200	4.5509118004513e-14
6	172102	201	4.6753174627253e-14
6	173074	202	4.6767348382575e-14
6	174046	203	4.7625961603663e-14
6	175018	204	4.6757587602077e-14
6	175990	205	4.6283165929808e-14
6	176962	206	4.5541480951807e-14
6	177934	207	4.7514388442496e-14
6	178906	208	4.7082495262966e-14
6	179878	209	4.5466600138763e-14
6	180850	210	4.7714078426789e-14
6	181822	211	4.5984399348292e-14
6	182794	212	4.7435175254756e-14
6	183766	213	4.7220313984618e-14
6	184738	214	4.6953885165357e-14
6	185710	215	4.6446389072905e-14
6	186682	216	4.7391551864316e-14
6	187654	217	4.660373232275e-14
6	188626	218	4.623213720032e-14
6	189598	219	4.7476577506904e-14
6	190570	220	4.6398108642118e-14
6	191542	221	4.733792015371e-14
6	192514	222	4.6738533685244e-14
6	193486	223	4.6186321702643e-14
6	194458	224	4.6740200558137e-14
6	195430	225	4.7555401937439e-14
6	196402	226	4.5480214524196e-14
6	197374	227	4.6965581331125e-14
6	198346	228	4.7105657441115e-14
6	199318	229	4.6289765603878e-14
6	200290	230	4.6561163895705e-14
6	201262	231	4.6924985365409e-14
6	202234	232	4.7362118096861e-14
6	203206	233	4.7227118854383e-14
6	204178	234	4.5746799791639e-14
6	205150	235	4.7210461525644e-14
6	206122	236	4.7065701256977e-14
6	207094	237	4.6898076923906e-14
6	208066	238	4.6211513267489e-14
6	209038	239	4.5734818028492e-14
6	210010	240	4.7495448413643e-14
6	210982	241	4.7145150647004e-14
6	211954	242	4.6797657593039e-14
6	212926	243	4.7103167655372e-14
6	213898	244	4.5737884918373e-14
6	214870	245	2.26501127935
6	215842	246	4.7838936003092
6	216814	247	6.9033412046501
6	217794	248	8.759777753123
6	218774	249	10.630499988576
6	219754	250	12.499777320051
6	220734	251	13.684714391916
6	221714	252	10.541425913929
6	222694	253	8.2983735970873
6	223674	254	8.214993948082
6	224654	255	8.2494868083508
6	225634	256	8.2806951629487
6	226614	257	8.2828988694167
6	227594	258	8.3246114391438
6	228574	259	8.2862506853323
6	229554	260	7.0194097851519
6	230526	261	4.3586435815494
6	231506	262	4.6780086398701
6	232486	263	5.51124983308
6	233458	264	3.580390983874
6	234430	265	5.9034317021356
6	235394	266	5.9392050439377
6	236366	267	3.5606461062213
6	237330	268	5.6770481364638
6	238294	269	7.759436162149
6	239250	270	8.2819961192971
6	240198	271	8.3269083723333
6	241146	272	8.232953632779
6	242086	273	8.2300433688122
6	243026	274	8.276167158552
6	243958	275	8.3074469789769
6	244898	276	8.2406233529071
6	245838	277	8.318401328451
6	246762	278	8.2218837147555
6	247686	279	8.2290632027853
6	248618	280	8.2274048761674
6	249534	281	8.2836018009018
5	30	1	6531.1346674873
5	92	2	6531.1346674873
5	155	3	6528.6604084302
5	218	4	6524.662074139
5	325	5	6519.1096391405
5	433	6	6512.0548970692
5	541	7	6503.4441856086
5	705	8	6493.266058579
5	870	9	6482.6262582733
5	1035	10	6472.2096492476
5	1268	11	6462.3364183829
5	1502	12	6452.8317343883
5	1736	13	6443.7929354508
5	2050	14	6434.9903514857
5	2365	15	6426.1788846522
5	2680	16	6418.0917677557
5	3087	17	6410.0021287568
5	3495	18	6401.996390843
5	3903	19	6394.2861074943
5	4415	20	6386.5730544511
5	4928	21	6379.6411985288
5	5441	22	6372.7507191665
5	6070	23	6365.8696860128
5	6700	24	6358.984273339
5	7330	25	6351.6322382599
5	8029	26	6344.2871113747
5	8788	27	6336.9405111519
5	9547	28	6329.0768264433
5	10446	29	6319.925280941
5	11354	30	6313.3831535761
5	12262	31	6302.4486828353
5	13170	32	6291.5470357605
5	14086	33	6280.6324529063
5	14994	34	6269.6992688502
5	15902	35	6258.1899123384
5	16818	36	6246.6725806551
5	17734	37	6234.8327149659
5	18650	38	6222.6736829039
5	19574	39	6210.5248191006
5	20498	40	6198.3744004855
5	21422	41	6186.2484069321
5	22354	42	6174.1003729949
5	23286	43	6161.9500079952
5	24218	44	6149.8015770853
5	25158	45	6137.6383336069
5	26098	46	6125.4987437932
5	27038	47	6113.3539838577
5	27986	48	6101.2046320763
5	28934	49	6089.0510016678
5	29882	50	6076.7856030957
5	30838	51	6064.536322195
5	31794	52	6052.2784574937
5	32750	53	6040.0227313536
5	33714	54	6027.7552578909
5	34686	55	6015.4665540923
5	35650	56	6003.1294886135
5	36630	57	5990.7788233558
5	37610	58	5978.4351266548
5	38590	59	5966.0944000456
5	39570	60	5953.7673870772
5	40550	61	5944.6457549556
5	41530	62	5932.7994817849
5	42510	63	5920.4417111643
5	43490	64	5908.0848186266
5	44470	65	5895.7387809396
5	45450	66	5883.3850525316
5	46430	67	5871.0196652432
5	47410	68	5858.6702570825
5	48390	69	5846.3174304717
5	49370	70	5832.4116077833
5	50350	71	5820.0569763052
5	51330	72	5807.7088543319
5	52310	73	5795.3641044035
5	53290	74	5783.0119560087
5	54270	75	5770.642259138
5	55250	76	5758.3076671726
5	56230	77	5745.9229865342
5	57210	78	5733.6360860781
5	58190	79	5721.3461545369
5	59170	80	5709.0472697027
5	60134	81	5699.1253484478
5	61106	82	5685.589763717
5	62078	83	5672.348895134
5	63042	84	5659.7545660599
5	64006	85	5647.8262411568
5	64962	86	5637.1778171275
5	65910	87	5626.1678127344
5	66858	88	5615.7354444413
5	67814	89	5606.6902320595
5	68762	90	5600.4439550669
5	69710	91	5598.0094430596
5	70658	92	5599.02649233
5	71598	93	5602.9323504533
5	72538	94	5610.5680390909
5	73470	95	5619.8399307272
5	74402	96	5630.9268781544
5	75334	97	5644.3287445237
5	76258	98	5655.3003964088
5	77182	99	5663.8834113983
5	78106	100	5672.2249579764
5	79030	101	5679.6382970482
5	79946	102	5686.6367016125
5	80862	103	5693.6424352092
5	81778	104	5700.1291542959
5	82686	105	5704.9949404808
5	83594	106	5708.1911276153
5	84502	107	5710.2100798441
5	85402	108	5712.6189564266
5	86302	109	5716.3417445363
5	87202	110	5721.5041464452
5	88102	111	5727.4167113232
5	89002	112	5734.2629388911
5	89902	113	5741.2506536117
5	90802	114	5748.6143256979
5	91702	115	5755.9975912676
5	92602	116	5763.3696522364
5	93502	117	5770.6596312297
5	94402	118	5777.9572183664
5	95302	119	5785.1978515178
5	96202	120	5792.5769371967
5	97102	121	5799.9767668082
5	98002	122	5807.3889945635
5	98902	123	5816.198977635
5	99802	124	5823.9775866884
5	100702	125	5830.1693252818
5	101602	126	5834.4533848214
5	102502	127	5837.5270578346
5	103402	128	5841.9763160663
5	104302	129	5846.9199483056
5	105202	130	5847.9052799528
5	106102	131	5849.6562432894
5	107002	132	5852.1483177625
5	107902	133	5858.2329175346
5	108802	134	5865.9077094162
5	109702	135	5875.3002297942
5	110602	136	5886.1284317433
5	111502	137	5896.4031473432
5	112402	138	5903.6055238541
5	113302	139	5905.1362552565
5	114202	140	5907.7332978158
5	115102	141	5916.650296173
5	116002	142	5926.6175216189
5	116902	143	5936.5690591955
5	117802	144	5946.6346084636
5	118702	145	5956.8561213039
5	119602	146	5967.0495903111
5	120510	147	5977.2636434133
5	121418	148	5986.4782164963
5	122326	149	5993.324727465
5	123234	150	5998.026182107
5	124150	151	6000.8950486026
5	125066	152	6002.4351923645
5	125982	153	6003.1215122886
5	126906	154	6003.4604725311
5	127830	155	6003.5509663866
5	128754	156	6003.5509663866
5	129686	157	6003.5509663866
5	130618	158	6003.5509663866
5	131550	159	6003.5509663866
5	132490	160	6003.5509663866
5	133430	161	6003.5509663866
5	134370	162	6003.5509663866
5	135318	163	6003.5509663866
5	136266	164	6003.5509663866
5	137214	165	6003.5509663866
5	138162	166	6003.5509663866
5	139118	167	6003.5509663866
5	140074	168	6003.5509663866
5	141030	169	6003.5509663866
5	141994	170	6003.5509663866
5	142958	171	6003.5509663866
5	143922	172	6003.5509663866
5	144886	173	6003.5509663866
5	145858	174	6003.5509663866
5	146830	175	6003.5509663866
5	147802	176	6003.5509663866
5	148774	177	6003.5509663866
5	149746	178	6003.5509663866
5	150718	179	6003.5509663866
5	151690	180	6003.5509663866
5	152662	181	6003.5509663866
5	153634	182	6003.5509663866
5	154606	183	6003.5509663866
5	155578	184	6003.5509663866
5	156550	185	6003.5509663866
5	157522	186	6003.5509663866
5	158494	187	6003.5509663866
5	159466	188	6003.5509663866
5	160438	189	6003.5509663866
5	161410	190	6003.5509663866
5	162382	191	6003.5509663866
5	163354	192	6003.5509663866
5	164326	193	6003.5509663866
5	165298	194	6003.5509663866
5	166270	195	6003.5509663866
5	167242	196	6003.5509663866
5	168214	197	6003.5509663866
5	169186	198	6003.5509663866
5	170158	199	6003.5509663866
5	171130	200	6003.5509663866
5	172102	201	6003.5509663866
5	173074	202	6003.5509663866
5	174046	203	6003.5509663866
5	175018	204	6003.5509663866
5	175990	205	6003.5509663866
5	176962	206	6003.5509663866
5	177934	207	6003.5509663866
5	178906	208	6003.5509663866
5	179878	209	6003.5509663866
5	180850	210	6003.5509663866
5	181822	211	6003.5509663866
5	182794	212	6003.5509663866
5	183766	213	6003.5509663866
5	184738	214	6003.5509663866
5	185710	215	6003.5509663866
5	186682	216	6003.5509663866
5	187654	217	6003.5509663866
5	188626	218	6003.5509663866
5	189598	219	6003.5509663866
5	190570	220	6003.5509663866
5	191542	221	6003.5509663866
5	192514	222	6003.5509663866
5	193486	223	6003.5509663866
5	194458	224	6003.5509663866
5	195430	225	6003.5509663866
5	196402	226	6003.5509663866
5	197374	227	6003.5509663866
5	198346	228	6003.5509663866
5	199318	229	6003.5509663866
5	200290	230	6003.5509663866
5	201262	231	6003.5509663866
5	202234	232	6003.5509663866
5	203206	233	6003.5509663866
5	204178	234	6003.5509663866
5	205150	235	6003.5509663866
5	206122	236	6003.5509663866
5	207094	237	6003.5509663866
5	208066	238	6003.5509663866
5	209038	239	6003.5509663866
5	210010	240	6003.5509663866
5	210982	241	6003.5509663866
5	211954	242	6003.5509663866
5	212926	243	6003.5509663866
5	213898	244	6003.5509663866
5	214870	245	6003.5509663866
5	215842	246	6004.505675295
5	216814	247	6007.1649615955
5	217794	248	6011.8566116846
5	218774	249	6018.0462111223
5	219754	250	6025.4541014187
5	220734	251	6034.2624727209
5	221714	252	6044.3431349715
5	222694	253	6055.0975862379
5	223674	254	6061.7571271388
5	224654	255	6066.8149535674
5	225634	256	6071.0738903992
5	226614	257	6075.3436551418
5	227594	258	6079.6040489198
5	228574	259	6083.8722353069
5	229554	260	6087.7061811787
5	230526	261	6091.9851945367
5	231506	262	6096.4338707265
5	232486	263	6099.8073297848
5	233458	264	6105.183521833
5	234430	265	6109.2412766105
5	235394	266	6113.6007460033
5	236366	267	6118.2832284758
5	237330	268	6121.1918683588
5	238294	269	6124.0886138677
5	239250	270	6129.3549714632
5	240198	271	6134.2569578745
5	241146	272	6139.2024721124
5	242086	273	6144.1499267285
5	243026	274	6149.0755755654
5	243958	275	6154.0245472026
5	244898	276	6158.9706533247
5	245838	277	6163.9129461168
5	246762	278	6168.8673956331
5	247686	279	6173.814314965
5	248618	280	6178.7515204324
5	249534	281	6183.6808508628
4	30	1	6544.7645515431
4	92	2	6544.7645515431
4	155	3	6542.9476746328
4	218	4	6540.0116517324
4	325	5	6535.934434791
4	433	6	6530.7540564709
4	541	7	6524.4311119153
4	705	8	6516.9571960627
4	870	9	6507.9908269355
4	1035	10	6498.6599067468
4	1268	11	6488.7740554279
4	1502	12	6478.5485587721
4	1736	13	6467.9060043297
4	2050	14	6457.0589492501
4	2365	15	6446.2009481844
4	2680	16	6434.8146793013
4	3087	17	6423.4232962404
4	3495	18	6411.9586877573
4	3903	19	6400.3693717154
4	4415	20	6388.7758925496
4	4928	21	6376.7153595439
4	5441	22	6364.6207750597
4	6070	23	6352.5427711299
4	6700	24	6340.4682005185
4	7330	25	6328.643117406
4	8029	26	6316.8291454981
4	8788	27	6305.0128038601
4	9547	28	6293.5813783405
4	10446	29	6283.0902151576
4	11354	30	6272.1142152844
4	12262	31	6263.4756260635
4	13170	32	6254.8629686115
4	14086	33	6246.2400914709
4	14994	34	6237.6145189048
4	15902	35	6229.7690405905
4	16818	36	6221.9181259137
4	17734	37	6214.5874020366
4	18650	38	6207.7797078937
4	19574	39	6200.9777068352
4	20498	40	6194.1748352565
4	21422	41	6187.3856389727
4	22354	42	6180.5841025461
4	23286	43	6173.7812609859
4	24218	44	6166.9795022992
4	25158	45	6160.1694502355
4	26098	46	6153.3726415709
4	27038	47	6146.5729382181
4	27986	48	6139.7706639466
4	28934	49	6133.0121635403
4	29882	50	6126.4173002809
4	30838	51	6119.8311031761
4	31794	52	6113.2402907307
4	32750	53	6106.6506281476
4	33714	54	6100.0546492604
4	34686	55	6093.5034698136
4	35650	56	6086.9720822071
4	36630	57	6080.4334947178
4	37610	58	6073.8985964643
4	38590	59	6067.3652706124
4	39570	60	6060.8392049232
4	40550	61	6051.6433045115
4	41530	62	6044.6770728498
4	42510	63	6038.2289816598
4	43490	64	6031.7813486397
4	44470	65	6025.3393795107
4	45450	66	6018.893397484
4	46430	67	6012.441332036
4	47410	68	6005.9976042467
4	48390	69	5999.5520927635
4	49370	70	5996.0245822873
4	50350	71	5989.5781290526
4	51330	72	5983.1350723757
4	52310	73	5976.693775179
4	53290	74	5970.2486175784
4	54270	75	5963.7943034579
4	55250	76	5957.3583065272
4	56230	77	5950.8535948595
4	57210	78	5944.2837094663
4	58190	79	5937.7122033322
4	59170	80	5931.1359098143
4	60134	81	5922.6386136405
4	61106	82	5919.3369649344
4	62078	83	5915.2059525937
4	63042	84	5909.2616747571
4	64006	85	5903.6317379076
4	64962	86	5900.7723056313
4	65910	87	5900.597678969
4	66858	88	5903.9701728257
4	67814	89	5910.2054246845
4	68762	90	5919.0741267215
4	69710	91	5929.7792748374
4	70658	92	5940.7487843438
4	71598	93	5950.9122585527
4	72538	94	5958.6219275608
4	73470	95	5964.5127866636
4	74402	96	5961.7689236188
4	75334	97	5959.4363982307
4	76258	98	5951.3937730327
4	77182	99	5940.4445149027
4	78106	100	5929.2823788498
4	79030	101	5917.5146709431
4	79946	102	5905.4828163894
4	80862	103	5893.4383615565
4	81778	104	5882.2862111107
4	82686	105	5873.9020495101
4	83594	106	5867.9932798969
4	84502	107	5864.2608565193
4	85402	108	5859.7169672551
4	86302	109	5853.2428957133
4	87202	110	5845.0871832301
4	88102	111	5834.886017404
4	89002	112	5823.073968971
4	89902	113	5811.0178075452
4	90802	114	5799.1617185485
4	91702	115	5787.3426857584
4	92602	116	5775.510329231
4	93502	117	5763.6553043161
4	94402	118	5751.7879069745
4	95302	119	5739.9842960483
4	96202	120	5728.300143198
4	97102	121	5716.6388660867
4	98002	122	5704.9580509323
4	98902	123	5694.3440438478
4	99802	124	5685.2652894919
4	100702	125	5679.08077028
4	101602	126	5675.07120173
4	102502	127	5672.5347225201
4	103402	128	5668.8487395831
4	104302	129	5663.671544268
4	105202	130	5656.2660387646
4	106102	131	5650.3380027233
4	107002	132	5647.1210571405
4	107902	133	5644.798556668
4	108802	134	5643.3472976809
4	109702	135	5644.423914614
4	110602	136	5648.7328104539
4	111502	137	5658.1748292155
4	112402	138	5670.1690762277
4	113302	139	5684.5143131765
4	114202	140	5697.3753708478
4	115102	141	5707.4514589953
4	116002	142	5716.554757633
4	116902	143	5725.6437281751
4	117802	144	5734.8419315623
4	118702	145	5744.1824887866
4	119602	146	5753.4956545986
4	120510	147	5762.8276268729
4	121418	148	5771.2464337528
4	122326	149	5777.5016832503
4	123234	150	5781.7971224779
4	124150	151	5784.4182350105
4	125066	152	5785.8253726807
4	125982	153	5786.4524223385
4	126906	154	5786.7621101337
4	127830	155	5786.8447889823
4	128754	156	5786.8447889823
4	129686	157	5786.8447889823
4	130618	158	5786.8447889823
4	131550	159	5786.8447889823
4	132490	160	5786.8447889823
4	133430	161	5786.8447889823
4	134370	162	5786.8447889823
4	135318	163	5786.8447889823
4	136266	164	5786.8447889823
4	137214	165	5786.8447889823
4	138162	166	5786.8447889823
4	139118	167	5786.8447889823
4	140074	168	5786.8447889823
4	141030	169	5786.8447889823
4	141994	170	5786.8447889823
4	142958	171	5786.8447889823
4	143922	172	5786.8447889823
4	144886	173	5786.8447889823
4	145858	174	5786.8447889823
4	146830	175	5786.8447889823
4	147802	176	5786.8447889823
4	148774	177	5786.8447889823
4	149746	178	5786.8447889823
4	150718	179	5786.8447889823
4	151690	180	5786.8447889823
4	152662	181	5786.8447889823
4	153634	182	5786.8447889823
4	154606	183	5786.8447889823
4	155578	184	5786.8447889823
4	156550	185	5786.8447889823
4	157522	186	5786.8447889823
4	158494	187	5786.8447889823
4	159466	188	5786.8447889823
4	160438	189	5786.8447889823
4	161410	190	5786.8447889823
4	162382	191	5786.8447889823
4	163354	192	5786.8447889823
4	164326	193	5786.8447889823
4	165298	194	5786.8447889823
4	166270	195	5786.8447889823
4	167242	196	5786.8447889823
4	168214	197	5786.8447889823
4	169186	198	5786.8447889823
4	170158	199	5786.8447889823
4	171130	200	5786.8447889823
4	172102	201	5786.8447889823
4	173074	202	5786.8447889823
4	174046	203	5786.8447889823
4	175018	204	5786.8447889823
4	175990	205	5786.8447889823
4	176962	206	5786.8447889823
4	177934	207	5786.8447889823
4	178906	208	5786.8447889823
4	179878	209	5786.8447889823
4	180850	210	5786.8447889823
4	181822	211	5786.8447889823
4	182794	212	5786.8447889823
4	183766	213	5786.8447889823
4	184738	214	5786.8447889823
4	185710	215	5786.8447889823
4	186682	216	5786.8447889823
4	187654	217	5786.8447889823
4	188626	218	5786.8447889823
4	189598	219	5786.8447889823
4	190570	220	5786.8447889823
4	191542	221	5786.8447889823
4	192514	222	5786.8447889823
4	193486	223	5786.8447889823
4	194458	224	5786.8447889823
4	195430	225	5786.8447889823
4	196402	226	5786.8447889823
4	197374	227	5786.8447889823
4	198346	228	5786.8447889823
4	199318	229	5786.8447889823
4	200290	230	5786.8447889823
4	201262	231	5786.8447889823
4	202234	232	5786.8447889823
4	203206	233	5786.8447889823
4	204178	234	5786.8447889823
4	205150	235	5786.8447889823
4	206122	236	5786.8447889823
4	207094	237	5786.8447889823
4	208066	238	5786.8447889823
4	209038	239	5786.8447889823
4	210010	240	5786.8447889823
4	210982	241	5786.8447889823
4	211954	242	5786.8447889823
4	212926	243	5786.8447889823
4	213898	244	5786.8447889823
4	214870	245	5786.8447889823
4	215842	246	5787.7162645185
4	216814	247	5789.9829141348
4	217794	248	5793.6839429777
4	218774	249	5798.7242960006
4	219754	250	5805.2505454889
4	220734	251	5813.0105994858
4	221714	252	5820.5613752878
4	222694	253	5820.3183267261
4	223674	254	5814.497007371
4	224654	255	5807.6053897223
4	225634	256	5800.4936885092
4	226614	257	5793.363906524
4	227594	258	5786.2497724581
4	228574	259	5779.1226260585
4	229554	260	5771.7773038776
4	230526	261	5765.2193704702
4	231506	262	5761.9343770028
4	232486	263	5759.8835280832
4	233458	264	5758.260768096
4	234430	265	5757.1242417337
4	235394	266	5754.9208376473
4	236366	267	5750.4644993469
4	237330	268	5746.8686356579
4	238294	269	5743.405135593
4	239250	270	5739.1965053129
4	240198	271	5732.6275360667
4	241146	272	5726.0002368027
4	242086	273	5719.3703373104
4	243026	274	5712.7696589297
4	243958	275	5706.1377265339
4	244898	276	5699.5096341081
4	245838	277	5692.8866517835
4	246762	278	5686.2473786862
4	247686	279	5679.6181965081
4	248618	280	5673.0020315178
4	249534	281	5666.3900376857
15	433	6	4.2301091069722
15	541	7	5.4083752898229
15	705	8	6.4569285084612
15	870	9	6.9981297601067
15	1035	10	8.3312879690391
15	1268	11	2.7979710561013
15	1502	12	2.1999068898786
15	1736	13	1.862060966402
15	2050	14	1.8170336337383
15	2365	15	2.4643876269913
15	2680	16	1.9825177553303
15	3087	17	1.8692397712926
15	3495	18	2.0163360752151
15	3903	19	1.9501722039104
15	4415	20	2.1245964095562
15	4928	21	2.244926002996
15	5441	22	1.9501086784574
15	6070	23	2.0415516808395
15	6700	24	2.1295288887144
15	7330	25	1.7817726947314
15	8029	26	1.8709502657584
15	8788	27	2.3937319200063
15	9547	28	1.7727028712565
15	10446	29	1.9454872553412
15	11354	30	2.287362462657
15	12262	31	1.9160815067495
15	13170	32	2.0343814173859
15	14086	33	1.8578691721442
15	14994	34	2.2400105387438
15	15902	35	2.2259592691187
15	16818	36	2.0400278102665
15	17734	37	2.0261268980361
15	18650	38	2.0476731800195
15	19574	39	1.6483983738959
15	20498	40	2.377055731479
15	21422	41	1.7185720768771
15	22354	42	2.0230552909982
15	23286	43	2.2764951366711
15	24218	44	2.0493259613889
15	25158	45	1.9680717047449
15	26098	46	1.8120633902435
15	27038	47	2.0930435500126
15	27986	48	2.0002860673589
15	28934	49	2.2916144637286
15	29882	50	1.7180430926245
15	30838	51	2.3599557301744
15	31794	52	1.8745031079248
15	32750	53	1.9322135985171
15	33714	54	1.9578335318217
15	34686	55	2.2826564095211
15	35650	56	2.1111181307223
15	36630	57	1.8352734953757
15	37610	58	2.225266880627
15	38590	59	1.8165014592351
15	39570	60	2.0245475585009
15	40550	61	2.1790330131244
15	41530	62	2.2007485599388
15	42510	63	1.7715884919976
15	43490	64	2.2679319172031
15	44470	65	1.6536886876506
15	45450	66	2.4154914897962
15	46430	67	2.0042106882903
15	47410	68	1.9514966765889
15	48390	69	2.0870159749206
15	49370	70	1.7590475400128
15	50350	71	2.2855176792
15	51330	72	1.7774561809659
15	52310	73	2.3975351716553
15	53290	74	1.6767458135493
15	54270	75	2.0547329611305
15	55250	76	2.2060723235975
15	56230	77	2.0538815687598
15	57210	78	1.9545565373452
15	58190	79	1.9545661422194
15	59170	80	2.2572489332096
15	60134	81	1.777967832478
15	61106	82	2.2331712673989
15	62078	83	1.9258124007572
15	63042	84	1.9853810220291
15	64006	85	1.9726608795495
15	64962	86	2.1477899908678
15	65910	87	0.973
15	66858	88	1.7732866302095
15	67814	89	1.7012768158985
15	68762	90	1.7062637705191
15	69710	91	1.8232911236044
15	70658	92	1.7354507169439
15	71598	93	1.9925894612729
15	72538	94	1.4773668070055
15	73470	95	1.7507701337254
15	74402	96	1.8925459845542
15	75334	97	2.2195590529145
15	76258	98	8.5998488217557
15	77182	99	4.375373557351
15	78106	100	2.0883423615362
15	79030	101	1.8962936042771
15	79946	102	2.2095886955265
15	80862	103	1.9548045343734
15	81778	104	1.6968618033583
15	82686	105	0.973
15	83594	106	0.973
15	84502	107	0.973
15	85402	108	0.973
15	86302	109	0.973
15	87202	110	3.5283536646069
15	88102	111	5.0533941868251
15	89002	112	5.9936800861462
15	89902	113	7.6364449467536
15	90802	114	7.4762709322239
15	91702	115	4.4864880580171
15	92602	116	1.9748920865372
15	93502	117	2.284719346747
15	94402	118	1.8910908031908
15	95302	119	1.9668645878483
15	96202	120	1.8432035775043
15	97102	121	1.8127133735378
15	98002	122	1.9047320633497
15	98902	123	2.1627425793983
15	99802	124	2.0336772643528
15	100702	125	0.973
15	101602	126	0.973
15	102502	127	0.973
15	103402	128	0.973
15	104302	129	0.973
15	105202	130	2.8299273554492
15	106102	131	2.4601952679626
15	107002	132	3.2690524645912
15	107902	133	1.3705111191355
15	108802	134	0.973
15	109702	135	2.34115913587
15	110602	136	5.3501028202508
15	111502	137	5.4907338733107
15	112402	138	6.9823198347055
15	113302	139	7.7654031360013
15	114202	140	5.0548978525996
15	115102	141	2.0959640068392
15	116002	142	2.3113140333611
15	116902	143	1.8556679019286
15	117802	144	2.1849543384507
15	118702	145	2.029196560067
15	119602	146	1.6730436743476
15	120510	147	2.1939597934541
15	121418	148	2.2126476110997
15	122326	149	1.6458730448594
15	123234	150	0.973
15	124150	151	0.973
15	125066	152	0.973
15	125982	153	0.973
15	126906	154	0.973
15	127830	155	0.973
15	128754	156	0.973
15	129686	157	0.973
15	130618	158	1.11
15	131550	159	1.11
15	132490	160	1.11
15	133430	161	1.11
15	134370	162	1.11
15	135318	163	1.11
15	136266	164	1.11
15	137214	165	1.11
15	138162	166	1.11
15	139118	167	1.11
15	140074	168	1.11
15	141030	169	1.11
15	141994	170	1.11
15	142958	171	1.11
15	143922	172	1.11
15	144886	173	1.11
15	145858	174	1.11
15	146830	175	1.11
15	147802	176	1.11
15	148774	177	1.11
15	149746	178	1.11
15	150718	179	1.11
15	151690	180	1.11
15	152662	181	1.11
15	153634	182	1.11
15	154606	183	1.11
15	155578	184	1.11
15	156550	185	1.11
15	157522	186	1.11
15	158494	187	1.11
15	159466	188	1.11
15	160438	189	1.11
15	161410	190	1.11
15	162382	191	1.11
15	163354	192	1.11
15	164326	193	1.11
15	165298	194	1.11
15	166270	195	1.11
15	167242	196	1.11
15	168214	197	1.11
15	169186	198	1.11
15	170158	199	1.11
15	171130	200	1.11
15	172102	201	1.11
15	173074	202	1.11
15	174046	203	1.11
15	175018	204	1.11
15	175990	205	1.11
15	176962	206	1.11
15	177934	207	1.11
15	178906	208	1.11
15	179878	209	1.11
15	180850	210	1.11
15	181822	211	1.11
15	182794	212	1.11
15	183766	213	1.11
15	184738	214	1.11
15	185710	215	1.11
15	186682	216	1.11
15	187654	217	1.11
15	188626	218	1.11
15	189598	219	1.11
15	190570	220	1.11
15	191542	221	1.11
15	192514	222	1.11
15	193486	223	1.11
15	194458	224	1.11
15	195430	225	1.11
15	196402	226	1.11
15	197374	227	1.11
15	198346	228	1.11
15	199318	229	1.11
15	200290	230	1.11
15	201262	231	1.11
15	202234	232	1.11
15	203206	233	1.11
15	204178	234	1.11
15	205150	235	1.11
15	206122	236	1.11
15	207094	237	1.11
15	208066	238	1.11
15	209038	239	1.11
15	210010	240	1.11
15	210982	241	1.11
15	211954	242	1.11
15	212926	243	1.11
15	213898	244	1.11
15	214870	245	1.3991613995423
15	215842	246	2.5871565375657
15	216814	247	1.8650336728358
15	217794	248	4.2758719326776
15	218774	249	5.2247985168262
15	219754	250	5.7860877977995
15	220734	251	6.7966529949197
15	221714	252	5.6738703458266
15	222694	253	0.973
15	223674	254	0.973
15	224654	255	0.973
15	225634	256	1.3561321064967
15	226614	257	1.6604852476311
15	227594	258	1.6093664906245
15	228574	259	1.475642621182
15	229554	260	1.631944263089
15	230526	261	0.973
15	231506	262	0.973
15	232486	263	0.973
15	233458	264	0.973
15	234430	265	0.973
15	235394	266	2.2242399585829
15	236366	267	3.6297062376287
15	237330	268	0.973
15	238294	269	5.0500961191524
15	239250	270	0.973
15	240198	271	0.973
15	241146	272	5.0077480280919
15	242086	273	4.7285269978471
15	243026	274	2.7562052380802
15	243958	275	1.6808805757369
15	244898	276	1.4165381765557
15	245838	277	1.6201886386755
15	246762	278	1.4625255489324
15	247686	279	1.741776828078
15	248618	280	1.4561293311824
15	249534	281	1.6663609257236
15	250458	282	1.4033043389175
15	251225	283	1.5827279894466
15	252000	284	1.5947328461325
15	252767	285	1.5169049348509
14	433	6	1.9474421001598
14	541	7	2.0059184591635
14	705	8	1.9846240851143
14	870	9	1.8173657322512
14	1035	10	1.9131545290095
14	1268	11	0.22784023580519
14	1502	12	0.048173203465995
14	1736	13	-0.050697381442879
14	2050	14	-0.0624894065666
14	2365	15	0.12612357348902
14	2680	16	-0.016221102369018
14	3087	17	-0.048529931781813
14	3495	18	-0.0045923082134696
14	3903	19	-0.0236226994358
14	4415	20	0.027527671894058
14	4928	21	0.061225076960399
14	5441	22	-0.025453781296964
14	6070	23	0.0016555238934224
14	6700	24	0.026912239429077
14	7330	25	-0.074307391571347
14	8029	26	-0.046478680849541
14	8788	27	0.10579280443024
14	9547	28	-0.076580716550817
14	10446	29	-0.024332785394508
14	11354	30	0.075151022234932
14	12262	31	-0.03426488544792
14	13170	32	0.00095979437231897
14	14086	33	-0.050294274978805
14	14994	34	0.061831997977571
14	15902	35	0.055728461944964
14	16818	36	0.00057277909479936
14	17734	37	-0.0034455207502475
14	18650	38	0.0028579124622059
14	19574	39	-0.11303970034933
14	20498	40	0.10098996350309
14	21422	41	-0.092267188986298
14	22354	42	-0.0012558598374017
14	23286	43	0.071910370483529
14	24218	44	0.0042500007152562
14	25158	45	-0.019336387976074
14	26098	46	-0.064113807829562
14	27038	47	0.019276091700885
14	27986	48	-0.0081730773020521
14	28934	49	0.076117294258438
14	29882	50	-0.092106426160317
14	30838	51	0.096266114083118
14	31794	52	-0.046657362170517
14	32750	53	-0.028648786386475
14	33714	54	-0.020408583988901
14	34686	55	0.074079362207558
14	35650	56	0.022336960195098
14	36630	57	-0.058067295800429
14	37610	58	0.05629918650957
14	38590	59	-0.063480341155083
14	39570	60	-0.0013609949522646
14	40550	61	0.04328765348764
14	41530	62	0.048116858524736
14	42510	63	-0.077200880446471
14	43490	64	0.068346768668853
14	44470	65	-0.11138682690216
14	45450	66	0.11209381130058
14	46430	67	-0.0096225321013481
14	47410	68	-0.024567516210956
14	48390	69	0.015250922779087
14	49370	70	-0.080199675722978
14	50350	71	0.074420579664874
14	51330	72	-0.074693152634426
14	52310	73	0.10649785328191
14	53290	74	-0.10481997357681
14	54270	75	0.0078517723642282
14	55250	76	0.051284794078676
14	56230	77	0.0058343152119775
14	57210	78	-0.023037091225852
14	58190	79	-0.022390382550656
14	59170	80	0.065594558604062
14	60134	81	-0.074839793811552
14	61106	82	0.058993951119483
14	62078	83	-0.031481913637837
14	63042	84	-0.013343009364325
14	64006	85	-0.016650468760636
14	64962	86	0.034500539558939
14	65910	87	-2.8751252003224
14	66858	88	0.0018146948353372
14	67814	89	-0.024502977333032
14	68762	90	-0.02199407587992
14	69710	91	0.021397515139544
14	70658	92	-0.011298229424284
14	71598	93	0.08233613520628
14	72538	94	-0.1079125418514
14	73470	95	-0.0046142260171482
14	74402	96	0.047238851725124
14	75334	97	0.16270384727279
14	76258	98	2.0732396816835
14	77182	99	0.69485516507877
14	78106	100	0.015116501634475
14	79030	101	-0.040743730282411
14	79946	102	0.050748005099596
14	80862	103	-0.024098327141255
14	81778	104	-0.098416493176483
14	82686	105	-1.8845038035186
14	83594	106	-2.6109872252828
14	84502	107	-0.51980985135076
14	85402	108	-2.738235241759
14	86302	109	-2.3199945480157
14	87202	110	1.6349268507827
14	88102	111	1.9842592026642
14	89002	112	1.9331283997372
14	89902	113	2.1117373524164
14	90802	114	1.7345318111777
14	91702	115	0.73125425613359
14	92602	116	-0.016426304255146
14	93502	117	0.07335288059665
14	94402	118	-0.042269868867008
14	95302	119	-0.019166230028494
14	96202	120	-0.054573530245106
14	97102	121	-0.062090684226714
14	98002	122	-0.033504299507477
14	98902	123	0.042781188699882
14	99802	124	0.0039038679492673
14	100702	125	-0.83016038992106
14	101602	126	-2.3465999329736
14	102502	127	-1.294768787767
14	103402	128	-2.8542448693508
14	104302	129	-2.5267805851427
14	105202	130	1.1766096110242
14	106102	131	0.73866435568518
14	107002	132	1.0695981545826
14	107902	133	-0.06154110469544
14	108802	134	-2.6933922598299
14	109702	135	0.81007810059586
14	110602	136	2.2152044951636
14	111502	137	1.7860949696111
14	112402	138	1.9722432033904
14	113302	139	1.8828884647787
14	114202	140	0.91488280905546
14	115102	141	0.023180916754063
14	116002	142	0.084810182016808
14	116902	143	-0.049985680021345
14	117802	144	0.047153780711815
14	118702	145	0.00059109195135498
14	119602	146	-0.10347214438021
14	120510	147	0.051590756750665
14	121418	148	0.055291762710549
14	122326	149	-0.11154816152062
14	123234	150	-2.4504508630289
14	124150	151	-2.6877636808745
14	125066	152	-2.5360280487243
14	125982	153	-2.2215877008955
14	126906	154	-1.7759664215395
14	127830	155	-1.1094872358424
14	128754	156	-0.55950624320312
14	129686	157	-0.43703021672206
14	130618	158	-0.00016185066482554
14	131550	159	-9.9182577552638e-16
14	132490	160	3.5026400908293e-16
14	133430	161	1.1627990705756e-15
14	134370	162	-2.7392125147081e-16
14	135318	163	4.180218153205e-16
14	136266	164	-3.7977343559953e-16
14	137214	165	-9.2764986396861e-16
14	138162	166	3.4047996849988e-16
14	139118	167	7.9742157816755e-16
14	140074	168	-1.5060491909719e-15
14	141030	169	2.0040059114764e-16
14	141994	170	1.0003042102193e-15
14	142958	171	-8.1678202228796e-16
14	143922	172	1.1770342220714e-15
14	144886	173	-1.5916756736033e-15
14	145858	174	-2.6954951723126e-16
14	146830	175	5.1812720646764e-16
14	147802	176	1.5636968440637e-15
14	148774	177	-9.8251419565896e-16
14	149746	178	-1.1821288738627e-15
14	150718	179	-7.4690303247846e-17
14	151690	180	1.3417450239564e-15
14	152662	181	3.3193201591903e-16
14	153634	182	-5.4729716136725e-17
14	154606	183	4.1407730289054e-16
14	155578	184	9.3169167075798e-17
14	156550	185	-4.0120687442116e-16
14	157522	186	-6.5942629443203e-16
14	158494	187	-6.8155822618754e-16
14	159466	188	1.5488185885975e-15
14	160438	189	-3.4556848856706e-18
14	161410	190	5.2710865821836e-17
14	162382	191	-1.4576906836748e-15
14	163354	192	2.2528669207223e-16
14	164326	193	-6.2529803703122e-16
14	165298	194	1.6156316168165e-15
14	166270	195	-1.2422385540132e-15
14	167242	196	1.1921350884193e-15
14	168214	197	-1.1681091309325e-15
14	169186	198	2.5814701497082e-16
14	170158	199	3.2570181839209e-16
14	171130	200	5.0855838045399e-16
14	172102	201	5.2038170487391e-16
14	173074	202	-2.0919495949663e-15
14	174046	203	7.2308542465371e-16
14	175018	204	-4.1790236426396e-16
14	175990	205	5.5081132247921e-16
14	176962	206	3.3276436231843e-16
14	177934	207	-7.1596952733401e-16
14	178906	208	4.4956610489594e-16
14	179878	209	2.1276960400041e-16
14	180850	210	1.1511217713522e-16
14	181822	211	-1.8059943108871e-16
14	182794	212	9.6831046376051e-16
14	183766	213	-1.1035871591143e-15
14	184738	214	7.999257474198e-16
14	185710	215	-1.5710840058373e-15
14	186682	216	1.8284348305142e-15
14	187654	217	-1.7763986972645e-15
14	188626	218	9.6932910651529e-17
14	189598	219	1.4689640895449e-15
14	190570	220	7.8061059501241e-17
14	191542	221	-1.9215760071112e-15
14	192514	222	4.5454283203042e-16
14	193486	223	1.0919719030897e-15
14	194458	224	-1.2840829879108e-15
14	195430	225	1.7342343514553e-15
14	196402	226	-1.5440665162529e-15
14	197374	227	1.1591435073793e-15
14	198346	228	-6.9742985321124e-16
14	199318	229	5.327029379711e-16
14	200290	230	5.0100428803424e-16
14	201262	231	-1.2448297563948e-15
14	202234	232	9.6701608241092e-16
14	203206	233	-4.3713316335722e-16
14	204178	234	-1.3036926359523e-15
14	205150	235	1.8771378021893e-15
14	206122	236	-5.4100078224183e-16
14	207094	237	-1.1647560666851e-15
14	208066	238	7.3272633219517e-16
14	209038	239	-2.4880801883107e-17
14	210010	240	1.009422815038e-15
14	210982	241	-1.1973019707097e-15
14	211954	242	8.9320060627658e-16
14	212926	243	-2.2032390987153e-16
14	213898	244	-1.3300723422865e-16
14	214870	245	0.9996776646886
14	215842	246	1.9060073930061
14	216814	247	0.67088678057436
14	217794	248	2.1011509936753
14	218774	249	2.000815042418
14	219754	250	1.8101604413101
14	220734	251	1.8345479044551
14	221714	252	1.2459177415861
14	222694	253	-2.2689585667788
14	223674	254	-0.5557572996255
14	224654	255	-1.4260952945785
14	225634	256	-0.10174807464238
14	226614	257	0.049954440465664
14	227594	258	0.023438095760065
14	228574	259	-0.042288044367451
14	229554	260	0.035014529663604
14	230526	261	-1.3721123328158
14	231506	262	-1.0570498547563
14	232486	263	-0.23776659729919
14	233458	264	-2.3439842068346
14	234430	265	-1.6957495554333
14	235394	266	1.3673020944495
14	236366	267	1.9342323192907
14	237330	268	-1.0973845864591
14	238294	269	2.4213535596058
14	239250	270	-0.50877371514942
14	240198	271	-2.3024536548297
14	241146	272	2.5219591243169
14	242086	273	1.7396010423242
14	243026	274	0.60136379128668
14	243958	275	0.058352223222609
14	244898	276	-0.071824865366798
14	245838	277	0.029621314620599
14	246762	278	-0.048149631849954
14	247686	279	0.088821153135504
14	248618	280	-0.052379030208103
14	249534	281	0.051211085212417
14	250458	282	-0.078267352874391
14	251225	283	0.011772132308687
14	252000	284	0.017198677910493
14	252767	285	-0.021238380216527
13	325	5	4.0425376740037
13	433	6	5.9899797741635
13	541	7	7.995898233327
13	705	8	9.9805223184414
13	870	9	11.797888050693
13	1035	10	13.711042579702
13	1268	11	13.938882815507
13	1502	12	13.987056018973
13	1736	13	13.93635863753
13	2050	14	13.873869230964
13	2365	15	13.999992804453
13	2680	16	13.983771702084
13	3087	17	13.935241770302
13	3495	18	13.930649462088
13	3903	19	13.907026762653
13	4415	20	13.934554434547
13	4928	21	13.995779511507
13	5441	22	13.97032573021
13	6070	23	13.971981254104
13	6700	24	13.998893493533
13	7330	25	13.924586101961
13	8029	26	13.878107421112
13	8788	27	13.983900225542
13	9547	28	13.907319508991
13	10446	29	13.882986723597
13	11354	30	13.958137745832
13	12262	31	13.923872860384
13	13170	32	13.924832654756
13	14086	33	13.874538379777
13	14994	34	13.936370377755
13	15902	35	13.9920988397
13	16818	36	13.992671618795
13	17734	37	13.989226098044
13	18650	38	13.992084010507
13	19574	39	13.879044310157
13	20498	40	13.98003427366
13	21422	41	13.887767084674
13	22354	42	13.886511224837
13	23286	43	13.95842159532
13	24218	44	13.962671596035
13	25158	45	13.943335208059
13	26098	46	13.87922140023
13	27038	47	13.898497491931
13	27986	48	13.890324414629
13	28934	49	13.966441708887
13	29882	50	13.874335282727
13	30838	51	13.97060139681
13	31794	52	13.923944034639
13	32750	53	13.895295248253
13	33714	54	13.874886664264
13	34686	55	13.948966026471
13	35650	56	13.971302986667
13	36630	57	13.913235690866
13	37610	58	13.969534877376
13	38590	59	13.906054536221
13	39570	60	13.904693541268
13	40550	61	13.947981194756
13	41530	62	13.996098053281
13	42510	63	13.918897172834
13	43490	64	13.987243941503
13	44470	65	13.875857114601
13	45450	66	13.987950925902
13	46430	67	13.9783283938
13	47410	68	13.953760877589
13	48390	69	13.969011800368
13	49370	70	13.888812124645
13	50350	71	13.96323270431
13	51330	72	13.888539551676
13	52310	73	13.995037404958
13	53290	74	13.890217431381
13	54270	75	13.898069203745
13	55250	76	13.949353997824
13	56230	77	13.955188313036
13	57210	78	13.93215122181
13	58190	79	13.909760839259
13	59170	80	13.975355397863
13	60134	81	13.900515604052
13	61106	82	13.959509555171
13	62078	83	13.928027641533
13	63042	84	13.914684632169
13	64006	85	13.898034163408
13	64962	86	13.932534702967
13	65910	87	11.057409502645
13	66858	88	11.05922419748
13	67814	89	11.034721220147
13	68762	90	11.012727144267
13	69710	91	11.034124659407
13	70658	92	11.022826429983
13	71598	93	11.105162565189
13	72538	94	10.997250023338
13	73470	95	10.99263579732
13	74402	96	11.039874649046
13	75334	97	11.202578496318
13	76258	98	13.275818178002
13	77182	99	13.970673343081
13	78106	100	13.985789844715
13	79030	101	13.945046114433
13	79946	102	13.995794119532
13	80862	103	13.971695792391
13	81778	104	13.873279299214
13	82686	105	11.988775495696
13	83594	106	9.3777882704131
13	84502	107	8.8579784190623
13	85402	108	6.1197431773034
13	86302	109	3.7997486292877
13	87202	110	5.4346754800704
13	88102	111	7.4189346827347
13	89002	112	9.3520630824718
13	89902	113	11.463800434888
13	90802	114	13.198332246066
13	91702	115	13.9295865022
13	92602	116	13.913160197944
13	93502	117	13.986513078541
13	94402	118	13.944243209674
13	95302	119	13.925076979646
13	96202	120	13.8705034494
13	97102	121	13.808412765174
13	98002	122	13.774908465666
13	98902	123	13.817689654366
13	99802	124	13.821593522315
13	100702	125	12.991433132394
13	101602	126	10.644833199421
13	102502	127	9.3500644116538
13	103402	128	6.495819542303
13	104302	129	3.9690389571603
13	105202	130	5.1456485681845
13	106102	131	5.8843129238697
13	107002	132	6.9539110784523
13	107902	133	6.8923699737568
13	108802	134	4.198977713927
13	109702	135	5.0090558145228
13	110602	136	7.2242603096865
13	111502	137	9.0103552792976
13	112402	138	10.982598482688
13	113302	139	12.865486947467
13	114202	140	13.780369756522
13	115102	141	13.803550673276
13	116002	142	13.888360855293
13	116902	143	13.838375175272
13	117802	144	13.885528955983
13	118702	145	13.886120047935
13	119602	146	13.782647903555
13	120510	147	13.834238660305
13	121418	148	13.889530423016
13	122326	149	13.777982261495
13	123234	150	11.327531398466
13	124150	151	8.6397677175918
13	125066	152	6.1037396688675
13	125982	153	3.882151967972
13	126906	154	2.1061855464325
13	127830	155	0.99669831059005
13	128754	156	0.43719206738693
13	129686	157	0.00016185066487247
13	130618	158	4.6932924479635e-14
13	131550	159	4.5941098704109e-14
13	132490	160	4.6291362713192e-14
13	133430	161	4.7454161783767e-14
13	134370	162	4.7180240532297e-14
13	135318	163	4.7598262347617e-14
13	136266	164	4.7218488912018e-14
13	137214	165	4.6290839048049e-14
13	138162	166	4.6631319016549e-14
13	139118	167	4.7428740594716e-14
13	140074	168	4.5922691403745e-14
13	141030	169	4.6123091994892e-14
13	141994	170	4.7123396205111e-14
13	142958	171	4.6306614182824e-14
13	143922	172	4.7483648404895e-14
13	144886	173	4.5891972731292e-14
13	145858	174	4.562242321406e-14
13	146830	175	4.6140550420528e-14
13	147802	176	4.7704247264592e-14
13	148774	177	4.6721733068933e-14
13	149746	178	4.553960419507e-14
13	150718	179	4.5464913891822e-14
13	151690	180	4.6806658915779e-14
13	152662	181	4.7138590931698e-14
13	153634	182	4.7083861215561e-14
13	154606	183	4.7497938518451e-14
13	155578	184	4.7591107685527e-14
13	156550	185	4.7189900811106e-14
13	157522	186	4.6530474516674e-14
13	158494	187	4.5848916290486e-14
13	159466	188	4.7397734879084e-14
13	160438	189	4.7394279194198e-14
13	161410	190	4.744699006002e-14
13	162382	191	4.5989299376345e-14
13	163354	192	4.6214586068418e-14
13	164326	193	4.5589288031386e-14
13	165298	194	4.7204919648203e-14
13	166270	195	4.596268109419e-14
13	167242	196	4.7154816182609e-14
13	168214	197	4.5986707051676e-14
13	169186	198	4.6244854066647e-14
13	170158	199	4.6570555885039e-14
13	171130	200	4.7079114265493e-14
13	172102	201	4.7599495970367e-14
13	173074	202	4.5507546375401e-14
13	174046	203	4.6230631800055e-14
13	175018	204	4.5812729435791e-14
13	175990	205	4.636354075827e-14
13	176962	206	4.6696305120588e-14
13	177934	207	4.5980335593254e-14
13	178906	208	4.642990169815e-14
13	179878	209	4.6642671302151e-14
13	180850	210	4.6757783479286e-14
13	181822	211	4.6577184048197e-14
13	182794	212	4.7545494511958e-14
13	183766	213	4.6441907352843e-14
13	184738	214	4.7241833100263e-14
13	185710	215	4.5670749094426e-14
13	186682	216	4.749918392494e-14
13	187654	217	4.5722785227676e-14
13	188626	218	4.5819718138327e-14
13	189598	219	4.7288682227872e-14
13	190570	220	4.7366743287373e-14
13	191542	221	4.5445167280262e-14
13	192514	222	4.5899710112292e-14
13	193486	223	4.6991682015382e-14
13	194458	224	4.5707599027471e-14
13	195430	225	4.7441833378927e-14
13	196402	226	4.5897766862674e-14
13	197374	227	4.7056910370053e-14
13	198346	228	4.6359480516842e-14
13	199318	229	4.6892183454813e-14
13	200290	230	4.7393187742847e-14
13	201262	231	4.6148357986452e-14
13	202234	232	4.7115374068863e-14
13	203206	233	4.6678240905506e-14
13	204178	234	4.5374548269554e-14
13	205150	235	4.7251686071743e-14
13	206122	236	4.6710685289501e-14
13	207094	237	4.5545929222816e-14
13	208066	238	4.6278655555011e-14
13	209038	239	4.6253774753128e-14
13	210010	240	4.7263197568166e-14
13	210982	241	4.6065895597456e-14
13	211954	242	4.6959096203733e-14
13	212926	243	4.6738772293861e-14
13	213898	244	4.6605765059633e-14
13	214870	245	0.99967766468865
13	215842	246	2.9056850576948
13	216814	247	3.5765718382691
13	217794	248	5.6777228319445
13	218774	249	7.6785378743625
13	219754	250	9.4886983156726
13	220734	251	11.323246220128
13	221714	252	12.569163961714
13	222694	253	10.300205394935
13	223674	254	9.7444480953095
13	224654	255	8.3183528007311
13	225634	256	8.2166047260887
13	226614	257	8.2665591665544
13	227594	258	8.2899972623144
13	228574	259	8.247709217947
13	229554	260	8.2827237476106
13	230526	261	6.9106114147948
13	231506	262	5.8535615600385
13	232486	263	5.6157949627393
13	233458	264	3.2718107559047
13	234430	265	1.5760612004714
13	235394	266	2.9433632949209
13	236366	267	4.8775956142116
13	237330	268	3.7802110277525
13	238294	269	6.2015645873583
13	239250	270	5.6927908722088
13	240198	271	3.3903372173792
13	241146	272	5.9122963416961
13	242086	273	7.6518973840203
13	243026	274	8.253261175307
13	243958	275	8.3116133985296
13	244898	276	8.2397885331628
13	245838	277	8.2694098477834
13	246762	278	8.2212602159334
13	247686	279	8.3100813690689
13	248618	280	8.2577023388608
13	249534	281	8.3089134240733
13	250458	282	8.2306460711989
13	251225	283	8.2424182035075
13	252000	284	8.259616881418
13	252767	285	8.2383785012015
12	218	4	6531.1213695459
12	325	5	6531.1213695459
12	433	6	6528.6321354885
12	541	7	6524.4508359017
12	705	8	6518.7049713924
12	870	9	6511.3559646101
12	1035	10	6502.4426513998
12	1268	11	6492.0350439976
12	1502	12	6481.4565434355
12	1736	13	6471.0336733782
12	2050	14	6461.2624771066
12	2365	15	6451.7739505617
12	2680	16	6442.8014803245
12	3087	17	6433.9928822108
12	3495	18	6425.2683593857
12	3903	19	6417.1710848968
12	4415	20	6409.0821891969
12	4928	21	6401.1062767956
12	5441	22	6393.4063814981
12	6070	23	6385.7539568107
12	6700	24	6378.8613834293
12	7330	25	6371.972041854
12	8029	26	6365.0850148724
12	8788	27	6358.1594393418
12	9547	28	6350.8101693884
12	10446	29	6343.4664800526
12	11354	30	6336.1304446433
12	12262	31	6328.0677057293
12	13170	32	6319.435723654
12	14086	33	6312.1842902593
12	14994	34	6301.2608165094
12	15902	35	6290.3198761207
12	16818	36	6279.3710181731
12	17734	37	6268.3844551562
12	18650	38	6256.8856792396
12	19574	39	6245.3843324057
12	20498	40	6233.488583571
12	21422	41	6221.3318134937
12	22354	42	6209.183306974
12	23286	43	6197.0458424436
12	24218	44	6184.8909936442
12	25158	45	6172.7425336965
12	26098	46	6160.6036241703
12	27038	47	6148.4626849496
12	27986	48	6136.3358984903
12	28934	49	6124.1898436425
12	29882	50	6112.0318336984
12	30838	51	6099.899913634
12	31794	52	6087.7113326117
12	32750	53	6075.4418870448
12	33714	54	6063.1771151462
12	34686	55	6050.9192893323
12	35650	56	6038.6535716826
12	36630	57	6026.395078437
12	37610	58	6014.1056205671
12	38590	59	6001.7667139174
12	39570	60	5989.422099931
12	40550	61	5977.1000732822
12	41530	62	5964.7506050372
12	42510	63	5952.3976500566
12	43490	64	5943.6897420451
12	44470	65	5931.3768847435
12	45450	66	5919.0281366637
12	46430	67	5906.6977914652
12	47410	68	5894.3351774986
12	48390	69	5881.9785452687
12	49370	70	5869.6151546839
12	50350	71	5857.2770501512
12	51330	72	5844.9278046465
12	52310	73	5831.0474459244
12	53290	74	5818.6964349281
12	54270	75	5806.3462736386
12	55250	76	5793.9835575833
12	56230	77	5781.6114929461
12	57210	78	5769.2548639542
12	58190	79	5756.8986439619
12	59170	80	5744.5414944613
12	60134	81	5732.2447338661
12	61106	82	5719.9784208314
12	62078	83	5707.7092093915
12	63042	84	5697.6738783109
12	64006	85	5684.1604918078
12	64962	86	5670.9905984667
12	65910	87	5658.388007701
12	66858	88	5646.7340291856
12	67814	89	5636.0064476746
12	68762	90	5625.0427281336
12	69710	91	5614.719454983
12	70658	92	5605.8084053838
12	71598	93	5599.8785953592
12	72538	94	5597.9822792487
12	73470	95	5599.3314094428
12	74402	96	5603.6375300255
12	75334	97	5611.5951358681
12	76258	98	5621.0030897036
12	77182	99	5632.4367714816
12	78106	100	5645.9479270075
12	79030	101	5656.5294285652
12	79946	102	5664.8977133229
12	80862	103	5673.2507492535
12	81778	104	5680.5003897039
12	82686	105	5687.4984078911
12	83594	106	5694.0831662752
12	84502	107	5699.3694988252
12	85402	108	5703.880756271
12	86302	109	5707.4752065486
12	87202	110	5709.7606682843
12	88102	111	5711.8084780928
12	89002	112	5714.843697456
12	89902	113	5719.5612202822
12	90802	114	5724.8424390837
12	91702	115	5731.0789946099
12	92602	116	5738.0247152419
12	93502	117	5745.1953774647
12	94402	118	5752.5972809078
12	95302	119	5759.993362212
12	96202	120	5767.3127719482
12	97102	121	5774.608604062
12	98002	122	5781.8612109163
12	98902	123	5789.1851180176
12	99802	124	5796.5918117917
12	100702	125	5804.0012167881
12	101602	126	5811.9911961793
12	102502	127	5819.5015806538
12	103402	128	5826.1426624366
12	104302	129	5831.807283959
12	105202	130	5835.4909286164
12	106102	131	5838.763661042
12	107002	132	5842.9797604648
12	107902	133	5847.1934526244
12	108802	134	5848.2486114508
12	109702	135	5850.4301902026
12	110602	136	5853.570808748
12	111502	137	5860.3749714512
12	112402	138	5868.8714338147
12	113302	139	5878.8651519993
12	114202	140	5889.8748614399
12	115102	141	5899.2293730504
12	116002	142	5904.9126934808
12	116902	143	5905.2412887024
12	117802	144	5910.6365635116
12	118702	145	5919.9237101615
12	119602	146	5929.8796051039
12	120510	147	5939.8307783348
12	121418	148	5949.9792909885
12	122326	149	5960.1988948989
12	123234	150	5970.4013440678
12	124150	151	5979.7287506451
12	125066	152	5987.0239612412
12	125982	153	5992.3825122474
12	126906	154	5995.9640681356
12	127830	155	5998.089404377
12	128754	156	5999.1467003215
12	129686	157	5999.6026398053
12	130618	158	5999.8587513167
12	131550	159	5999.8587515006
12	132490	160	5999.8587515006
12	133430	161	5999.8587515006
12	134370	162	5999.8587515006
12	135318	163	5999.8587515006
12	136266	164	5999.8587515006
12	137214	165	5999.8587515006
12	138162	166	5999.8587515006
12	139118	167	5999.8587515006
12	140074	168	5999.8587515006
12	141030	169	5999.8587515006
12	141994	170	5999.8587515006
12	142958	171	5999.8587515006
12	143922	172	5999.8587515006
12	144886	173	5999.8587515006
12	145858	174	5999.8587515006
12	146830	175	5999.8587515006
12	147802	176	5999.8587515006
12	148774	177	5999.8587515006
12	149746	178	5999.8587515006
12	150718	179	5999.8587515006
12	151690	180	5999.8587515006
12	152662	181	5999.8587515006
12	153634	182	5999.8587515006
12	154606	183	5999.8587515006
12	155578	184	5999.8587515006
12	156550	185	5999.8587515006
12	157522	186	5999.8587515006
12	158494	187	5999.8587515006
12	159466	188	5999.8587515006
12	160438	189	5999.8587515006
12	161410	190	5999.8587515006
12	162382	191	5999.8587515006
12	163354	192	5999.8587515006
12	164326	193	5999.8587515006
12	165298	194	5999.8587515006
12	166270	195	5999.8587515006
12	167242	196	5999.8587515006
12	168214	197	5999.8587515006
12	169186	198	5999.8587515006
12	170158	199	5999.8587515006
12	171130	200	5999.8587515006
12	172102	201	5999.8587515006
12	173074	202	5999.8587515006
12	174046	203	5999.8587515006
12	175018	204	5999.8587515006
12	175990	205	5999.8587515006
12	176962	206	5999.8587515006
12	177934	207	5999.8587515006
12	178906	208	5999.8587515006
12	179878	209	5999.8587515006
12	180850	210	5999.8587515006
12	181822	211	5999.8587515006
12	182794	212	5999.8587515006
12	183766	213	5999.8587515006
12	184738	214	5999.8587515006
12	185710	215	5999.8587515006
12	186682	216	5999.8587515006
12	187654	217	5999.8587515006
12	188626	218	5999.8587515006
12	189598	219	5999.8587515006
12	190570	220	5999.8587515006
12	191542	221	5999.8587515006
12	192514	222	5999.8587515006
12	193486	223	5999.8587515006
12	194458	224	5999.8587515006
12	195430	225	5999.8587515006
12	196402	226	5999.8587515006
12	197374	227	5999.8587515006
12	198346	228	5999.8587515006
12	199318	229	5999.8587515006
12	200290	230	5999.8587515006
12	201262	231	5999.8587515006
12	202234	232	5999.8587515006
12	203206	233	5999.8587515006
12	204178	234	5999.8587515006
12	205150	235	5999.8587515006
12	206122	236	5999.8587515006
12	207094	237	5999.8587515006
12	208066	238	5999.8587515006
12	209038	239	5999.8587515006
12	210010	240	5999.8587515006
12	210982	241	5999.8587515006
12	211954	242	5999.8587515006
12	212926	243	5999.8587515006
12	213898	244	5999.8587515006
12	214870	245	5999.8587515006
12	215842	246	6000.220023904
12	216814	247	6001.6869406609
12	217794	248	6004.4799704757
12	218774	249	6007.8225965005
12	219754	250	6013.17262937
12	220734	251	6019.845377414
12	221714	252	6027.7418671179
12	222694	253	6036.9949242014
12	223674	254	6045.2216983223
12	224654	255	6054.4835107025
12	225634	256	6061.4008029758
12	226614	257	6066.5407451767
12	227594	258	6070.8065680041
12	228574	259	6075.0711900448
12	229554	260	6079.3273686752
12	230526	261	6083.5893092416
12	231506	262	6087.2462137867
12	232486	263	6089.9737587303
12	233458	264	6094.4323536749
12	234430	265	6098.0508811966
12	235394	266	6100.1917064865
12	236366	267	6101.9338565219
12	237330	268	6105.8635126518
12	238294	269	6109.6942059039
12	239250	270	6114.1638124111
12	240198	271	6118.7294282386
12	241146	272	6121.4620466271
12	242086	273	6124.6078573964
12	243026	274	6129.7857329754
12	243958	275	6134.6871543704
12	244898	276	6139.6293694444
12	245838	277	6144.5614908279
12	246762	278	6149.4935657629
12	247686	279	6154.4391781711
12	248618	280	6159.3867543599
12	249534	281	6164.3309146072
12	250458	282	6169.2753167856
12	251225	283	6174.2127229265
12	252000	284	6179.1583504266
12	252767	285	6184.0878658321
11	218	4	6544.7547867117
11	325	5	6544.7547867117
11	433	6	6542.9269134862
11	541	7	6539.8565370628
11	705	8	6535.6372826048
11	870	9	6530.2408223198
11	1035	10	6523.6956738157
11	1268	11	6516.0532478835
11	1502	12	6506.9430276212
11	1736	13	6497.6064989675
11	2050	14	6487.6428959689
11	2365	15	6477.3987466699
11	2680	16	6466.6842757547
11	3087	17	6455.829809692
11	3495	18	6444.9203594607
11	3903	19	6433.5182245243
11	4415	20	6422.1278881361
11	4928	21	6410.6207585863
11	5441	22	6399.0470568096
11	6070	23	6387.4448411351
11	6700	24	6375.3465811024
11	7330	25	6363.2539937305
11	8029	26	6351.1654690727
11	8788	27	6339.1415296762
11	9547	28	6327.3208940182
11	10446	29	6315.5092342784
11	11354	30	6303.7098851867
11	12262	31	6292.424540943
11	13170	32	6281.7384638251
11	14086	33	6271.1670740855
11	14994	34	6262.5371728469
11	15902	35	6253.8934723927
11	16818	36	6245.2435168083
11	17734	37	6236.7182618193
11	18650	38	6228.8799958831
11	19574	39	6221.039977453
11	20498	40	6213.8348392193
11	21422	41	6207.0284115341
11	22354	42	6200.2266105143
11	23286	43	6193.4309917701
11	24218	44	6186.625639785
11	25158	45	6179.8238648404
11	26098	46	6173.0274370605
11	27038	47	6166.2298728794
11	27986	48	6159.4402326572
11	28934	49	6152.6398042987
11	29882	50	6145.8326824272
11	30838	51	6139.040167962
11	31794	52	6132.291849872
11	32750	53	6125.6948106233
11	33714	54	6119.1002843139
11	34686	55	6112.5094927776
11	35650	56	6105.9144579565
11	36630	57	6099.3233075553
11	37610	58	6092.7829755943
11	38590	59	6086.2506132504
11	39570	60	6079.7152293753
11	40550	61	6073.1918035023
11	41530	62	6066.6538497256
11	42510	63	6060.0684333711
11	43490	64	6050.4725089522
11	44470	65	6043.9347839911
11	45450	66	6037.4914006217
11	46430	67	6031.0576195874
11	47410	68	6024.6070012154
11	48390	69	6018.1595040198
11	49370	70	6011.7084804205
11	50350	71	6005.2706506872
11	51330	72	5998.8270077692
11	52310	73	5995.3127839917
11	53290	74	5988.8682198678
11	54270	75	5982.4240991077
11	55250	76	5975.9734274673
11	56230	77	5969.5178778833
11	57210	78	5963.0703823772
11	58190	79	5956.6231002808
11	59170	80	5950.1149020848
11	60134	81	5943.5397444112
11	61106	82	5936.9808672458
11	62078	83	5930.4204402843
11	63042	84	5922.2845658033
11	64006	85	5918.9883317691
11	64962	86	5914.5648630424
11	65910	87	5908.6166858484
11	66858	88	5903.2338421568
11	67814	89	5900.7199604224
11	68762	90	5900.8684620424
11	69710	91	5904.5395875725
11	70658	92	5910.9702064922
11	71598	93	5920.1356727138
11	72538	94	5930.9891587085
11	73470	95	5941.9259062212
11	74402	96	5951.9207690438
11	75334	97	5959.3090697709
11	76258	98	5964.4727993624
11	77182	99	5961.6280798144
11	78106	100	5958.9456283185
11	79030	101	5950.2035978648
11	79946	102	5939.0872394892
11	80862	103	5927.9097291031
11	81778	104	5916.0325369295
11	82686	105	5904.0013466464
11	83594	106	5892.6806442746
11	84502	107	5883.5922322259
[...]
69	156550	185	1.1727105079635e-14
69	157522	186	1.197607572201e-14
69	158494	187	1.2130503244478e-14
69	159466	188	1.2148914525557e-14
69	160438	189	1.1845683014941e-14
69	161410	190	1.2086254733457e-14
69	162382	191	1.1997110363071e-14
69	163354	192	1.2176861882431e-14
69	164326	193	1.1981171620594e-14
69	165298	194	1.1888229420035e-14
69	166270	195	1.1930657101597e-14
69	167242	196	1.1781651504009e-14
69	168214	197	1.1901386088435e-14
69	169186	198	1.1701240176955e-14
69	170158	199	1.1680668591088e-14
69	171130	200	1.203709081989e-14
69	172102	201	1.1866519446026e-14
69	173074	202	1.1798448864725e-14
69	174046	203	1.1877709717149e-14
69	175018	204	1.1867065183108e-14
69	175990	205	1.1763751650395e-14
69	176962	206	1.1963826796601e-14
69	177934	207	1.1806138629603e-14
69	178906	208	1.1807124632791e-14
69	179878	209	1.2187585934927e-14
69	180850	210	1.2042329540004e-14
69	181822	211	1.1746883150512e-14
69	182794	212	1.1713897290256e-14
69	183766	213	1.2087622113401e-14
69	184738	214	1.1656199903032e-14
69	185710	215	1.2154435915945e-14
69	186682	216	1.1922996483403e-14
69	187654	217	1.1639592068397e-14
69	188626	218	1.1970056940206e-14
69	189598	219	1.17963938959e-14
69	190570	220	1.1969933994734e-14
69	191542	221	1.1931090350388e-14
69	192514	222	1.1966658039107e-14
69	193486	223	1.1849280629236e-14
69	194458	224	1.1622996462665e-14
69	195430	225	1.2081869472492e-14
69	196402	226	1.1783753009789e-14
69	197374	227	1.1727701072964e-14
69	198346	228	1.184082206995e-14
69	199318	229	1.2203125276697e-14
69	200290	230	1.1632813229718e-14
69	201262	231	1.173912308673e-14
69	202234	232	1.1987531263604e-14
69	203206	233	1.1789953611476e-14
69	204178	234	1.1869784636735e-14
69	205150	235	1.1853980487735e-14
69	206122	236	1.1997428660405e-14
69	207094	237	1.1626563120282e-14
69	208066	238	1.1790036690305e-14
69	209038	239	1.2120853784218e-14
69	210010	240	1.1651988092905e-14
69	210982	241	1.1723854269844e-14
69	211954	242	1.1968904603512e-14
69	212926	243	1.1945566707519e-14
69	213898	244	1.2066065763399e-14
69	214870	245	0.18978724986744
69	215842	246	0.44812716352812
69	216814	247	0.41980273707932
69	217794	248	0.43580766885658
69	218774	249	0.43900500976469
69	219754	250	0.43240449584671
69	220734	251	0.647937529168
69	221714	252	1.4499996745854
69	222694	253	2.2869850698577
69	223674	254	2.7606025667533
69	224654	255	3.1953304879807
69	225634	256	3.5208199871647
69	226614	257	3.8552085155632
69	227594	258	4.0234356325879
69	228574	259	4.3683296066732
69	229554	260	4.1567373879005
69	230526	261	4.624103126684
69	231506	262	4.3333482777825
69	232486	263	4.6563728941394
69	233458	264	4.4099513078752
69	234430	265	6.6368532634145
69	235394	266	8.6998366226969
69	236366	267	10.714884209204
69	237330	268	12.33537887089
69	238294	269	10.850088073723
69	239250	270	9.9292167955917
69	240198	271	8.749967332161
69	241146	272	8.2295285298722
69	242086	273	7.8167242441195
69	243026	274	6.9699740374804
69	243958	275	6.2640838496765
69	244898	276	5.3450735383665
69	245838	277	4.5408366481262
69	246762	278	3.8923098388682
69	247686	279	3.5092919163822
69	248618	280	3.5263177739882
69	249534	281	3.5141117825577
69	250458	282	3.9495839019854
69	251225	283	3.7947345367155
69	252000	284	4.3939874102802
69	252767	285	3.9395644346309
69	253534	286	4.8238218318788
69	254164	287	3.8874318467518
69	254794	288	5.4360348663922
69	255307	289	4.9207601871635
69	255820	290	5.1009564575381
69	256228	291	4.2521430032082
69	256636	292	6.5334093387389
69	257044	293	8.2071454292233
69	257359	294	8.2005590429693
69	257674	295	8.2704016336286
69	257989	296	8.2180207179976
69	258304	297	8.2093330829451
69	258538	298	8.2394739102153
69	258772	299	8.2126478805114
69	258937	300	8.229768951342
69	259102	301	8.3192302277172
69	259210	302	8.2075151220732
69	259318	303	8.2189900439093
69	259381	304	8.2195149154146
68	9547	28	6531.1065592014
68	10446	29	6531.1065592014
68	11354	30	6528.5378180219
68	12262	31	6524.4999728357
68	13170	32	6518.7446253317
68	14086	33	6511.2968997399
68	14994	34	6502.3327607913
68	15902	35	6491.8744269345
68	16818	36	6481.2909211226
68	17734	37	6470.8728496438
68	18650	38	6461.0936454139
68	19574	39	6451.6087998398
68	20498	40	6442.6462427017
68	21422	41	6433.8235014906
68	22354	42	6425.1083186716
68	23286	43	6417.0207001972
68	24218	44	6408.9294264328
68	25158	45	6400.9589494647
68	26098	46	6393.249286353
68	27038	47	6385.6116465393
68	27986	48	6378.7299174027
68	28934	49	6371.8445984583
68	29882	50	6364.9664917943
68	30838	51	6358.0275723375
68	31794	52	6350.6832068281
68	32750	53	6343.3469345468
68	33714	54	6336.0016288409
68	34686	55	6327.9181937516
68	35650	56	6319.4093355236
68	36630	57	6312.0077194881
68	37610	58	6301.0725001172
68	38590	59	6290.1576017679
68	39570	60	6279.242826845
68	40550	61	6268.2534171736
68	41530	62	6256.7487830336
68	42510	63	6245.2384896786
68	43490	64	6233.3523716882
68	44470	65	6221.1976721194
68	45450	66	6209.0344547238
68	46430	67	6196.8678500781
68	47410	68	6184.7168128353
68	48390	69	6172.5731520853
68	49370	70	6160.4339814327
68	50350	71	6148.2863720246
68	51330	72	6136.1410046065
68	52310	73	6123.996953554
68	53290	74	6111.8465341637
68	54270	75	6099.6930790865
68	55250	76	6087.4956877485
68	56230	77	6075.2361552129
68	57210	78	6062.985386035
68	58190	79	6050.717511446
68	59170	80	6038.4577533657
68	60134	81	6026.2015536509
68	61106	82	6013.886862669
68	62078	83	6001.5345397631
68	63042	84	5989.1907633924
68	64006	85	5976.8520185437
68	64962	86	5964.5115411154
68	65910	87	5952.2085039338
68	66858	88	5943.5455888549
68	67814	89	5931.2232436609
68	68762	90	5918.8553045369
68	69710	91	5906.5128977108
68	70658	92	5894.1482582736
68	71598	93	5881.793791274
68	72538	94	5867.884756765
68	73470	95	5855.5325278268
68	74402	96	5843.1883432068
68	75334	97	5830.8291630792
68	76258	98	5818.4749112714
68	77182	99	5806.1192475876
68	78106	100	5793.7801053115
68	79030	101	5781.4076961784
68	79946	102	5769.0586508159
68	80862	103	5756.6979179069
68	81778	104	5744.3331236939
68	82686	105	5732.0406142622
68	83594	106	5719.7385558635
68	84502	107	5707.4570477541
68	85402	108	5697.3908029466
68	86302	109	5683.8737270278
68	87202	110	5670.7308996701
68	88102	111	5658.1387146693
68	89002	112	5646.4346866022
68	89902	113	5635.7170221266
68	90802	114	5624.7394653132
68	91702	115	5614.4475435834
68	92602	116	5605.5696189999
68	93502	117	5599.7299405054
68	94402	118	5598.0066859357
68	95302	119	5599.3992861056
68	96202	120	5603.7788895975
68	97102	121	5611.8088633305
68	98002	122	5621.2519893674
68	98902	123	5633.1527078156
68	99802	124	5646.7037125022
68	100702	125	5657.0364475407
68	101602	126	5665.3736890995
68	102502	127	5673.705341871
68	103402	128	5680.8835774446
68	104302	129	5687.8066961595
68	105202	130	5694.0816980496
68	106102	131	5699.2254019196
68	107002	132	5703.2989524439
68	107902	133	5706.9434917178
68	108802	134	5709.4366756095
68	109702	135	5711.3205746665
68	110602	136	5714.0182070578
68	111502	137	5718.6335802122
68	112402	138	5723.7371617462
68	113302	139	5729.8326479439
68	114202	140	5736.7359028755
68	115102	141	5743.8429249108
68	116002	142	5751.2257380392
68	116902	143	5758.6202021426
68	117802	144	5765.9584301603
68	118702	145	5773.2546749454
68	119602	146	5780.5589352875
68	120510	147	5787.828469034
68	121418	148	5795.2367872522
68	122326	149	5802.6522945013
68	123234	150	5810.1651320358
68	124150	151	5817.6539284536
68	125066	152	5823.5314705561
68	125982	153	5829.0179417197
68	126906	154	5833.7333715806
68	127830	155	5836.8154351928
68	128754	156	5840.9457146157
68	129686	157	5846.7387603557
68	130618	158	5847.7122550967
68	131550	159	5849.1986493376
68	132490	160	5851.6455761985
68	133430	161	5856.9422109737
68	134370	162	5864.1437353657
68	135318	163	5873.1895977272
68	136266	164	5883.7352539462
68	137214	165	5893.97105132
68	138162	166	5901.9946108859
68	139118	167	5905.0556888582
68	140074	168	5905.5430081604
68	141030	169	5914.3295889889
68	141994	170	5924.115042988
68	142958	171	5934.0635550108
68	143922	172	5943.7606258503
68	144886	173	5951.9958218821
68	145858	174	5958.4719589698
68	146830	175	5963.2925062155
68	147802	176	5966.5491630913
68	148774	177	5968.5350091732
68	149746	178	5969.5963487816
68	150718	179	5970.057903163
68	151690	180	5970.3210307533
68	152662	181	5970.321032413
68	153634	182	5970.321032413
68	154606	183	5970.321032413
68	155578	184	5970.321032413
68	156550	185	5970.321032413
68	157522	186	5970.321032413
68	158494	187	5970.321032413
68	159466	188	5970.321032413
68	160438	189	5970.321032413
68	161410	190	5970.321032413
68	162382	191	5970.321032413
68	163354	192	5970.321032413
68	164326	193	5970.321032413
68	165298	194	5970.321032413
68	166270	195	5970.321032413
68	167242	196	5970.321032413
68	168214	197	5970.321032413
68	169186	198	5970.321032413
68	170158	199	5970.321032413
68	171130	200	5970.321032413
68	172102	201	5970.321032413
68	173074	202	5970.321032413
68	174046	203	5970.321032413
68	175018	204	5970.321032413
68	175990	205	5970.321032413
68	176962	206	5970.321032413
68	177934	207	5970.321032413
68	178906	208	5970.321032413
68	179878	209	5970.321032413
68	180850	210	5970.321032413
68	181822	211	5970.321032413
68	182794	212	5970.321032413
68	183766	213	5970.321032413
68	184738	214	5970.321032413
68	185710	215	5970.321032413
68	186682	216	5970.321032413
68	187654	217	5970.321032413
68	188626	218	5970.321032413
68	189598	219	5970.321032413
68	190570	220	5970.321032413
68	191542	221	5970.321032413
68	192514	222	5970.321032413
68	193486	223	5970.321032413
68	194458	224	5970.321032413
68	195430	225	5970.321032413
68	196402	226	5970.321032413
68	197374	227	5970.321032413
68	198346	228	5970.321032413
68	199318	229	5970.321032413
68	200290	230	5970.321032413
68	201262	231	5970.321032413
68	202234	232	5970.321032413
68	203206	233	5970.321032413
68	204178	234	5970.321032413
68	205150	235	5970.321032413
68	206122	236	5970.321032413
68	207094	237	5970.321032413
68	208066	238	5970.321032413
68	209038	239	5970.321032413
68	210010	240	5970.321032413
68	210982	241	5970.321032413
68	211954	242	5970.321032413
68	212926	243	5970.321032413
68	213898	244	5970.321032413
68	214870	245	5970.321032413
68	215842	246	5970.3350443168
68	216814	247	5970.6499931122
68	217794	248	5970.9708128745
68	218774	249	5971.2918363857
68	219754	250	5971.6157017211
68	220734	251	5971.9404736012
68	221714	252	5972.2986569676
68	222694	253	5973.134687091
68	223674	254	5974.5376839357
68	224654	255	5976.380583012
68	225634	256	5978.6142034565
68	226614	257	5981.1158141431
68	227594	258	5983.9149063502
68	228574	259	5986.7503278775
68	229554	260	5989.891667589
68	230526	261	5992.8999565738
68	231506	262	5996.3063089394
68	232486	263	5999.3560688491
68	233458	264	6002.9722317551
68	234430	265	6005.8536565446
68	235394	266	6010.2949541127
68	236366	267	6016.3848298429
68	237330	268	6023.8183565262
68	238294	269	6032.6532026706
68	239250	270	6041.2895271963
68	240198	271	6049.5426905864
68	241146	272	6058.7450186769
68	242086	273	6064.320190921
68	243026	274	6068.6761244063
68	243958	275	6072.4933845605
68	244898	276	6075.895666087
68	245838	277	6078.8851648057
68	246762	278	6081.4039582231
68	247686	279	6083.5404519715
68	248618	280	6085.4215217135
68	249534	281	6086.9727439327
68	250458	282	6088.4532320478
68	251225	283	6090.2729562572
68	252000	284	6093.0609786069
68	252767	285	6096.4353435254
68	253534	286	6099.6717787996
68	254164	287	6103.7412656595
68	254794	288	6108.1637909061
68	255307	289	6112.1912096776
68	255820	290	6115.9923587809
68	256228	291	6119.518283299
68	256636	292	6122.1000752002
68	257044	293	6126.0322045069
68	257359	294	6131.2627774942
68	257674	295	6136.2008919209
68	257989	296	6141.1453827167
68	258304	297	6146.0861919673
68	258538	298	6151.0313060164
68	258772	299	6155.9673982946
68	258937	300	6160.901936993
68	259102	301	6165.8352264972
68	259210	302	6170.7860927768
68	259318	303	6175.7365083823
68	259381	304	6180.6774377988
67	9547	28	6544.7439113052
67	10446	29	6544.7439113052
67	11354	30	6542.8576550847
67	12262	31	6539.8926188791
67	13170	32	6535.666400949
67	14086	33	6530.1974503056
67	14994	34	6523.6149798768
67	15902	35	6515.9353049251
67	16818	36	6506.7946675762
67	17734	37	6497.4624373611
67	18650	38	6487.4650691449
67	19574	39	6477.2192276662
67	20498	40	6466.4929829421
67	21422	41	6455.6210889336
67	22354	42	6444.694998962
67	23286	43	6433.3064610922
67	24218	44	6421.9127760447
67	25158	45	6410.3993110827
67	26098	46	6398.8109273182
67	27038	47	6387.1950495734
67	27986	48	6375.1158240125
67	28934	49	6363.0302974046
67	29882	50	6350.9574302258
67	30838	51	6338.9294335329
67	31794	52	6327.1166862291
67	32750	53	6315.3169561504
67	33714	54	6303.5026966257
67	34686	55	6292.253143166
67	35650	56	6281.5256672353
67	36630	57	6271.0275774061
67	37610	58	6262.3883967429
67	38590	59	6253.765270351
67	39570	60	6245.1422414698
67	40550	61	6236.6289383502
67	41530	62	6228.7866790921
67	42510	63	6220.9405621684
67	43490	64	6213.7585758431
67	44470	65	6206.9533074104
67	45450	66	6200.1432699502
67	46430	67	6193.3313360098
67	47410	68	6186.528118069
67	48390	69	6179.7290301367
67	49370	70	6172.9324561553
67	50350	71	6166.1311574174
67	51330	72	6159.3311139424
67	52310	73	6152.5318074846
67	53290	74	6145.7289354718
67	54270	75	6138.9243638149
67	55250	76	6132.175901876
67	56230	77	6125.5841926689
67	57210	78	6118.9971953468
67	58190	79	6112.4010007819
67	59170	80	6105.8091703039
67	60134	81	6099.219253089
67	61106	82	6092.6671625895
67	62078	83	6086.1276975216
67	63042	84	6079.5927570901
67	64006	85	6073.0604804055
67	64962	86	6066.5272864728
67	65910	87	6059.9423359559
67	66858	88	6050.3195812199
67	67814	89	6043.8546164802
67	68762	90	6037.4012195244
67	69710	91	6030.9611449218
67	70658	92	6024.5094696909
67	71598	93	6018.0631022786
67	72538	94	6014.5339159246
67	73470	95	6008.0887162977
67	74402	96	6001.64771407
67	75334	97	5995.1988874214
67	76258	98	5988.7526322928
67	77182	99	5982.3056404694
67	78106	100	5975.8672692579
67	79030	101	5969.4115399213
67	79946	102	5962.9680014344
67	80862	103	5956.5183645687
67	81778	104	5950.0034848835
67	82686	105	5943.4306003346
67	83594	106	5936.8526098911
67	84502	107	5930.2856078207
67	85402	108	5922.2155170382
67	86302	109	5918.9183830684
67	87202	110	5914.4422902724
67	88102	111	5908.4990243966
67	89002	112	5903.1555666702
67	89902	113	5900.707026808
67	90802	114	5900.9414507212
67	91702	115	5904.691981241
67	92602	116	5911.1772987557
67	93502	117	5920.4147940628
67	94402	118	5931.2631528258
67	95302	119	5942.18794171
67	96202	120	5952.1229340199
67	97102	121	5959.4520564535
67	98002	122	5964.2780083212
67	98902	123	5961.5612968204
67	99802	124	5958.7165517416
67	100702	125	5949.606693812
67	101602	126	5938.4503184666
67	102502	127	5927.301421687
67	103402	128	5915.3737497559
67	104302	129	5903.4713287583
67	105202	130	5892.6831684896
67	106102	131	5883.8399676911
67	107002	132	5876.8366047139
67	107902	133	5870.2997759714
67	108802	134	5865.6906437151
67	109702	135	5862.2078922259
67	110602	136	5856.7442558917
67	111502	137	5849.9918843657
67	112402	138	5841.2344797339
67	113302	139	5830.7177130216
67	114202	140	5818.8072731788
67	115102	141	5806.7997131221
67	116002	142	5794.981404594
67	116902	143	5783.1444453411
67	117802	144	5771.3004368822
67	118702	145	5759.4352224841
67	119602	146	5747.55697312
67	120510	147	5735.7831807821
67	121418	148	5724.1085266067
67	122326	149	5712.4225433488
67	123234	150	5701.3864085741
67	124150	151	5692.6459072027
67	125066	152	5685.785971114
67	125982	153	5680.1579179867
67	126906	154	5675.7462141432
67	127830	155	5673.0727197323
67	128754	156	5669.8950500322
67	129686	157	5665.0158941467
67	130618	158	5657.7561906536
67	131550	159	5651.2056008558
67	132490	160	5647.7309403494
67	133430	161	5645.2035584335
67	134370	162	5643.2464991638
67	135318	163	5644.1566533115
67	136266	164	5647.4625410004
67	137214	165	5655.7205335328
67	138162	166	5667.0780858623
67	139118	167	5681.1060197872
67	140074	168	5694.871964949
67	141030	169	5705.0250703008
67	141994	170	5714.2691857419
67	142958	171	5723.3553929754
67	143922	172	5732.2139389017
67	144886	173	5739.7419225398
67	145858	174	5745.6587834707
67	146830	175	5750.0630305206
67	147802	176	5753.0384440384
67	148774	177	5754.8527933855
67	149746	178	5755.8224762039
67	150718	179	5756.2441709657
67	151690	180	5756.484574981
67	152662	181	5756.4845764973
67	153634	182	5756.4845764973
67	154606	183	5756.4845764973
67	155578	184	5756.4845764973
67	156550	185	5756.4845764973
67	157522	186	5756.4845764973
67	158494	187	5756.4845764973
67	159466	188	5756.4845764973
67	160438	189	5756.4845764973
67	161410	190	5756.4845764973
67	162382	191	5756.4845764973
67	163354	192	5756.4845764973
67	164326	193	5756.4845764973
67	165298	194	5756.4845764973
67	166270	195	5756.4845764973
67	167242	196	5756.4845764973
67	168214	197	5756.4845764973
67	169186	198	5756.4845764973
67	170158	199	5756.4845764973
67	171130	200	5756.4845764973
67	172102	201	5756.4845764973
67	173074	202	5756.4845764973
67	174046	203	5756.4845764973
67	175018	204	5756.4845764973
67	175990	205	5756.4845764973
67	176962	206	5756.4845764973
67	177934	207	5756.4845764973
67	178906	208	5756.4845764973
67	179878	209	5756.4845764973
67	180850	210	5756.4845764973
67	181822	211	5756.4845764973
67	182794	212	5756.4845764973
67	183766	213	5756.4845764973
67	184738	214	5756.4845764973
67	185710	215	5756.4845764973
67	186682	216	5756.4845764973
67	187654	217	5756.4845764973
67	188626	218	5756.4845764973
67	189598	219	5756.4845764973
67	190570	220	5756.4845764973
67	191542	221	5756.4845764973
67	192514	222	5756.4845764973
67	193486	223	5756.4845764973
67	194458	224	5756.4845764973
67	195430	225	5756.4845764973
67	196402	226	5756.4845764973
67	197374	227	5756.4845764973
67	198346	228	5756.4845764973
67	199318	229	5756.4845764973
67	200290	230	5756.4845764973
67	201262	231	5756.4845764973
67	202234	232	5756.4845764973
67	203206	233	5756.4845764973
67	204178	234	5756.4845764973
67	205150	235	5756.4845764973
67	206122	236	5756.4845764973
67	207094	237	5756.4845764973
67	208066	238	5756.4845764973
67	209038	239	5756.4845764973
67	210010	240	5756.4845764973
67	210982	241	5756.4845764973
67	211954	242	5756.4845764973
67	212926	243	5756.4845764973
67	213898	244	5756.4845764973
67	214870	245	5756.4845764973
67	215842	246	5756.4973783396
67	216814	247	5756.785128305
67	217794	248	5757.0782422234
67	218774	249	5757.3715422949
67	219754	250	5757.6674387721
67	220734	251	5757.9641635052
67	221714	252	5758.2914143243
67	222694	253	5759.055245279
67	223674	254	5760.3370799752
67	224654	255	5762.0208271529
67	225634	256	5764.0615531851
67	226614	257	5766.3471259479
67	227594	258	5768.9044898668
67	228574	259	5771.4950457229
67	229554	260	5774.3651008126
67	230526	261	5777.1135953738
67	231506	262	5780.2257767492
67	232486	263	5783.0121608257
67	233458	264	5786.3160336018
67	234430	265	5788.9292386538
67	235394	266	5792.4463181009
67	236366	267	5797.3259991099
67	237330	268	5803.809476731
67	238294	269	5811.5928546999
67	239250	270	5818.9753918637
67	240198	271	5821.3510100887
67	241146	272	5817.8778302684
67	242086	273	5811.5624442689
67	243026	274	5804.4975505043
67	243958	275	5798.1233743328
67	244898	276	5792.4421419936
67	245838	277	5787.4501868404
67	246762	278	5783.2442296005
67	247686	279	5779.6766478818
67	248618	280	5776.5355808749
67	249534	281	5773.3808644016
67	250458	282	5770.1819060697
67	251225	283	5766.8768489119
67	252000	284	5764.3465645265
67	252767	285	5761.9334816346
67	253534	286	5759.9659344758
67	254164	287	5758.54924838
67	254794	288	5757.458950059
67	255307	289	5755.9289781185
67	255820	290	5752.9776412191
67	256228	291	5748.9424315786
67	256636	292	5745.7827361737
67	257044	293	5741.8670952266
67	257359	294	5736.6399255728
67	257674	295	5730.0225425199
67	257989	296	5723.3966147326
67	258304	297	5716.7756204468
67	258538	298	5710.148857461
67	258772	299	5703.534184214
67	258937	300	5696.9215928613
67	259102	301	5690.3106755073
67	259210	302	5683.6762041719
67	259318	303	5677.042336768
67	259381	304	5670.4210627439
