version 2
run General-0-20170909-18:29:34-3552
attr configname General
attr datetime 20170909-18:29:34
attr experiment General
attr inifile omnetpp.ini
attr iterationvars ""
attr iterationvars2 $repetition=0
attr measurement ""
attr network RSUExampleScenario1
attr processid 3552
attr repetition 0
attr replication #0
attr resultdir results
attr runnumber 0
attr seedset 0
param **.coreDebug false
param **.debug false
param *.**.nic.mac1609_4.bitrate 6Mbps
param *.**.nic.mac1609_4.txPower 20mW
param *.**.nic.mac1609_4.useServiceChannel false
param *.**.nic.phy80211p.analogueModels "xmldoc(\"config.xml\")"
param *.**.nic.phy80211p.antenna "xmldoc(\"antenna.xml\", \"/root/Antenna[@id='monopole']\")"
param *.**.nic.phy80211p.decider "xmldoc(\"config.xml\")"
param *.**.nic.phy80211p.sensitivity -89dBm
param *.**.nic.phy80211p.thermalNoise -110dBm
param *.**.nic.phy80211p.usePropagationDelay true
param *.**.nic.phy80211p.useThermalNoise true
param *.annotations.draw true
param *.connectionManager.drawMaxIntfDist false
param *.connectionManager.maxInterfDist 2600m
param *.connectionManager.sendDirect true
param *.manager.autoShutdown true
param *.manager.host "\"localhost\""
param *.manager.launchConfig "xmldoc(\"Coruna.launchd.xml\")"
param *.manager.port 9999
param *.manager.updateInterval 1s
param *.node[*].appl.beaconInterval 1s
param *.node[*].appl.dataOnSch false
param *.node[*].appl.headerLength "80 bit"
param *.node[*].appl.sendBeacons true
param *.node[*].applType "\"TraCIDemo11p\""
param *.node[*].veinsmobility.x 0
param *.node[*].veinsmobility.y 0
param *.node[*].veinsmobility.z 1.895
param *.node[*].veinsmobilityType.debug true
param *.node[0].veinsmobility.accidentCount 1
param *.node[0].veinsmobility.accidentDuration 50s
param *.node[0].veinsmobility.accidentStart 80s
param *.playgroundSizeX 9999m
param *.playgroundSizeY 9999m
param *.playgroundSizeZ 50m
param *.rsu[*].appl.beaconInterval 1s
param *.rsu[*].appl.beaconPriority 3
param *.rsu[*].appl.dataOnSch false
param *.rsu[*].appl.dataPriority 2
param *.rsu[*].appl.headerLength "80 bit"
param *.rsu[*].appl.sendBeacons true
param *.rsu[*].applType "\"TraCIDemoRSU11p\""
param *.rsu[0].mobility.x 6000
param *.rsu[0].mobility.y 6000
param *.rsu[0].mobility.z 3

vector 4  RSUExampleScenario1.node[0].veinsmobility  posx  ETV
vector 5  RSUExampleScenario1.node[0].veinsmobility  posy  ETV
vector 6  RSUExampleScenario1.node[0].veinsmobility  speed  ETV
vector 7  RSUExampleScenario1.node[0].veinsmobility  acceleration  ETV
vector 8  RSUExampleScenario1.node[0].veinsmobility  co2emission  ETV
vector 11  RSUExampleScenario1.node[1].veinsmobility  posx  ETV
vector 12  RSUExampleScenario1.node[1].veinsmobility  posy  ETV
vector 13  RSUExampleScenario1.node[1].veinsmobility  speed  ETV
vector 14  RSUExampleScenario1.node[1].veinsmobility  acceleration  ETV
vector 15  RSUExampleScenario1.node[1].veinsmobility  co2emission  ETV
vector 18  RSUExampleScenario1.node[2].veinsmobility  posx  ETV
vector 19  RSUExampleScenario1.node[2].veinsmobility  posy  ETV
vector 20  RSUExampleScenario1.node[2].veinsmobility  speed  ETV
vector 21  RSUExampleScenario1.node[2].veinsmobility  acceleration  ETV
vector 22  RSUExampleScenario1.node[2].veinsmobility  co2emission  ETV
vector 25  RSUExampleScenario1.node[3].veinsmobility  posx  ETV
vector 26  RSUExampleScenario1.node[3].veinsmobility  posy  ETV
vector 27  RSUExampleScenario1.node[3].veinsmobility  speed  ETV
vector 28  RSUExampleScenario1.node[3].veinsmobility  acceleration  ETV
vector 29  RSUExampleScenario1.node[3].veinsmobility  co2emission  ETV
vector 32  RSUExampleScenario1.node[4].veinsmobility  posx  ETV
vector 33  RSUExampleScenario1.node[4].veinsmobility  posy  ETV
vector 34  RSUExampleScenario1.node[4].veinsmobility  speed  ETV
vector 35  RSUExampleScenario1.node[4].veinsmobility  acceleration  ETV
vector 36  RSUExampleScenario1.node[4].veinsmobility  co2emission  ETV
vector 39  RSUExampleScenario1.node[5].veinsmobility  posx  ETV
vector 40  RSUExampleScenario1.node[5].veinsmobility  posy  ETV
vector 41  RSUExampleScenario1.node[5].veinsmobility  speed  ETV
vector 42  RSUExampleScenario1.node[5].veinsmobility  acceleration  ETV
vector 43  RSUExampleScenario1.node[5].veinsmobility  co2emission  ETV
vector 46  RSUExampleScenario1.node[6].veinsmobility  posx  ETV
vector 47  RSUExampleScenario1.node[6].veinsmobility  posy  ETV
vector 48  RSUExampleScenario1.node[6].veinsmobility  speed  ETV
vector 49  RSUExampleScenario1.node[6].veinsmobility  acceleration  ETV
vector 50  RSUExampleScenario1.node[6].veinsmobility  co2emission  ETV
vector 53  RSUExampleScenario1.node[7].veinsmobility  posx  ETV
vector 54  RSUExampleScenario1.node[7].veinsmobility  posy  ETV
vector 55  RSUExampleScenario1.node[7].veinsmobility  speed  ETV
vector 56  RSUExampleScenario1.node[7].veinsmobility  acceleration  ETV
vector 57  RSUExampleScenario1.node[7].veinsmobility  co2emission  ETV
vector 60  RSUExampleScenario1.node[8].veinsmobility  posx  ETV
vector 61  RSUExampleScenario1.node[8].veinsmobility  posy  ETV
vector 62  RSUExampleScenario1.node[8].veinsmobility  speed  ETV
vector 63  RSUExampleScenario1.node[8].veinsmobility  acceleration  ETV
vector 64  RSUExampleScenario1.node[8].veinsmobility  co2emission  ETV
vector 67  RSUExampleScenario1.node[9].veinsmobility  posx  ETV
vector 68  RSUExampleScenario1.node[9].veinsmobility  posy  ETV
vector 69  RSUExampleScenario1.node[9].veinsmobility  speed  ETV
vector 70  RSUExampleScenario1.node[9].veinsmobility  acceleration  ETV
vector 71  RSUExampleScenario1.node[9].veinsmobility  co2emission  ETV
vector 74  RSUExampleScenario1.node[10].veinsmobility  posx  ETV
vector 75  RSUExampleScenario1.node[10].veinsmobility  posy  ETV
vector 76  RSUExampleScenario1.node[10].veinsmobility  speed  ETV
vector 77  RSUExampleScenario1.node[10].veinsmobility  acceleration  ETV
vector 78  RSUExampleScenario1.node[10].veinsmobility  co2emission  ETV
vector 81  RSUExampleScenario1.node[11].veinsmobility  posx  ETV
vector 82  RSUExampleScenario1.node[11].veinsmobility  posy  ETV
vector 83  RSUExampleScenario1.node[11].veinsmobility  speed  ETV
vector 84  RSUExampleScenario1.node[11].veinsmobility  acceleration  ETV
vector 85  RSUExampleScenario1.node[11].veinsmobility  co2emission  ETV
vector 88  RSUExampleScenario1.node[12].veinsmobility  posx  ETV
vector 89  RSUExampleScenario1.node[12].veinsmobility  posy  ETV
vector 90  RSUExampleScenario1.node[12].veinsmobility  speed  ETV
vector 91  RSUExampleScenario1.node[12].veinsmobility  acceleration  ETV
vector 92  RSUExampleScenario1.node[12].veinsmobility  co2emission  ETV
vector 95  RSUExampleScenario1.node[13].veinsmobility  posx  ETV
vector 96  RSUExampleScenario1.node[13].veinsmobility  posy  ETV
vector 97  RSUExampleScenario1.node[13].veinsmobility  speed  ETV
vector 98  RSUExampleScenario1.node[13].veinsmobility  acceleration  ETV
vector 99  RSUExampleScenario1.node[13].veinsmobility  co2emission  ETV
vector 102  RSUExampleScenario1.node[14].veinsmobility  posx  ETV
vector 103  RSUExampleScenario1.node[14].veinsmobility  posy  ETV
vector 104  RSUExampleScenario1.node[14].veinsmobility  speed  ETV
vector 105  RSUExampleScenario1.node[14].veinsmobility  acceleration  ETV
vector 106  RSUExampleScenario1.node[14].veinsmobility  co2emission  ETV
vector 109  RSUExampleScenario1.node[15].veinsmobility  posx  ETV
vector 110  RSUExampleScenario1.node[15].veinsmobility  posy  ETV
vector 111  RSUExampleScenario1.node[15].veinsmobility  speed  ETV
vector 112  RSUExampleScenario1.node[15].veinsmobility  acceleration  ETV
vector 113  RSUExampleScenario1.node[15].veinsmobility  co2emission  ETV
vector 116  RSUExampleScenario1.node[16].veinsmobility  posx  ETV
vector 117  RSUExampleScenario1.node[16].veinsmobility  posy  ETV
vector 118  RSUExampleScenario1.node[16].veinsmobility  speed  ETV
vector 119  RSUExampleScenario1.node[16].veinsmobility  acceleration  ETV
vector 120  RSUExampleScenario1.node[16].veinsmobility  co2emission  ETV
vector 123  RSUExampleScenario1.node[17].veinsmobility  posx  ETV
vector 124  RSUExampleScenario1.node[17].veinsmobility  posy  ETV
vector 125  RSUExampleScenario1.node[17].veinsmobility  speed  ETV
vector 126  RSUExampleScenario1.node[17].veinsmobility  acceleration  ETV
vector 127  RSUExampleScenario1.node[17].veinsmobility  co2emission  ETV
vector 130  RSUExampleScenario1.node[18].veinsmobility  posx  ETV
vector 131  RSUExampleScenario1.node[18].veinsmobility  posy  ETV
vector 132  RSUExampleScenario1.node[18].veinsmobility  speed  ETV
vector 133  RSUExampleScenario1.node[18].veinsmobility  acceleration  ETV
vector 134  RSUExampleScenario1.node[18].veinsmobility  co2emission  ETV
vector 137  RSUExampleScenario1.node[19].veinsmobility  posx  ETV
vector 138  RSUExampleScenario1.node[19].veinsmobility  posy  ETV
vector 139  RSUExampleScenario1.node[19].veinsmobility  speed  ETV
vector 140  RSUExampleScenario1.node[19].veinsmobility  acceleration  ETV
vector 141  RSUExampleScenario1.node[19].veinsmobility  co2emission  ETV
vector 144  RSUExampleScenario1.node[20].veinsmobility  posx  ETV
vector 145  RSUExampleScenario1.node[20].veinsmobility  posy  ETV
vector 146  RSUExampleScenario1.node[20].veinsmobility  speed  ETV
vector 147  RSUExampleScenario1.node[20].veinsmobility  acceleration  ETV
vector 148  RSUExampleScenario1.node[20].veinsmobility  co2emission  ETV
vector 151  RSUExampleScenario1.node[21].veinsmobility  posx  ETV
vector 152  RSUExampleScenario1.node[21].veinsmobility  posy  ETV
vector 153  RSUExampleScenario1.node[21].veinsmobility  speed  ETV
vector 154  RSUExampleScenario1.node[21].veinsmobility  acceleration  ETV
vector 155  RSUExampleScenario1.node[21].veinsmobility  co2emission  ETV
vector 158  RSUExampleScenario1.node[22].veinsmobility  posx  ETV
vector 159  RSUExampleScenario1.node[22].veinsmobility  posy  ETV
vector 160  RSUExampleScenario1.node[22].veinsmobility  speed  ETV
vector 161  RSUExampleScenario1.node[22].veinsmobility  acceleration  ETV
vector 162  RSUExampleScenario1.node[22].veinsmobility  co2emission  ETV
vector 165  RSUExampleScenario1.node[23].veinsmobility  posx  ETV
vector 166  RSUExampleScenario1.node[23].veinsmobility  posy  ETV
vector 167  RSUExampleScenario1.node[23].veinsmobility  speed  ETV
vector 168  RSUExampleScenario1.node[23].veinsmobility  acceleration  ETV
vector 169  RSUExampleScenario1.node[23].veinsmobility  co2emission  ETV
vector 172  RSUExampleScenario1.node[24].veinsmobility  posx  ETV
vector 173  RSUExampleScenario1.node[24].veinsmobility  posy  ETV
vector 174  RSUExampleScenario1.node[24].veinsmobility  speed  ETV
vector 175  RSUExampleScenario1.node[24].veinsmobility  acceleration  ETV
vector 176  RSUExampleScenario1.node[24].veinsmobility  co2emission  ETV
vector 179  RSUExampleScenario1.node[25].veinsmobility  posx  ETV
vector 180  RSUExampleScenario1.node[25].veinsmobility  posy  ETV
vector 181  RSUExampleScenario1.node[25].veinsmobility  speed  ETV
vector 182  RSUExampleScenario1.node[25].veinsmobility  acceleration  ETV
vector 183  RSUExampleScenario1.node[25].veinsmobility  co2emission  ETV
vector 186  RSUExampleScenario1.node[26].veinsmobility  posx  ETV
vector 187  RSUExampleScenario1.node[26].veinsmobility  posy  ETV
vector 188  RSUExampleScenario1.node[26].veinsmobility  speed  ETV
vector 189  RSUExampleScenario1.node[26].veinsmobility  acceleration  ETV
vector 190  RSUExampleScenario1.node[26].veinsmobility  co2emission  ETV
vector 193  RSUExampleScenario1.node[27].veinsmobility  posx  ETV
vector 194  RSUExampleScenario1.node[27].veinsmobility  posy  ETV
vector 195  RSUExampleScenario1.node[27].veinsmobility  speed  ETV
vector 196  RSUExampleScenario1.node[27].veinsmobility  acceleration  ETV
vector 197  RSUExampleScenario1.node[27].veinsmobility  co2emission  ETV
vector 200  RSUExampleScenario1.node[28].veinsmobility  posx  ETV
vector 201  RSUExampleScenario1.node[28].veinsmobility  posy  ETV
vector 202  RSUExampleScenario1.node[28].veinsmobility  speed  ETV
vector 203  RSUExampleScenario1.node[28].veinsmobility  acceleration  ETV
vector 204  RSUExampleScenario1.node[28].veinsmobility  co2emission  ETV
vector 207  RSUExampleScenario1.node[29].veinsmobility  posx  ETV
vector 208  RSUExampleScenario1.node[29].veinsmobility  posy  ETV
vector 209  RSUExampleScenario1.node[29].veinsmobility  speed  ETV
vector 210  RSUExampleScenario1.node[29].veinsmobility  acceleration  ETV
vector 211  RSUExampleScenario1.node[29].veinsmobility  co2emission  ETV
vector 214  RSUExampleScenario1.node[30].veinsmobility  posx  ETV
vector 215  RSUExampleScenario1.node[30].veinsmobility  posy  ETV
vector 216  RSUExampleScenario1.node[30].veinsmobility  speed  ETV
vector 217  RSUExampleScenario1.node[30].veinsmobility  acceleration  ETV
vector 218  RSUExampleScenario1.node[30].veinsmobility  co2emission  ETV
vector 221  RSUExampleScenario1.node[31].veinsmobility  posx  ETV
vector 222  RSUExampleScenario1.node[31].veinsmobility  posy  ETV
vector 223  RSUExampleScenario1.node[31].veinsmobility  speed  ETV
vector 224  RSUExampleScenario1.node[31].veinsmobility  acceleration  ETV
vector 225  RSUExampleScenario1.node[31].veinsmobility  co2emission  ETV
vector 228  RSUExampleScenario1.node[32].veinsmobility  posx  ETV
vector 229  RSUExampleScenario1.node[32].veinsmobility  posy  ETV
vector 230  RSUExampleScenario1.node[32].veinsmobility  speed  ETV
vector 231  RSUExampleScenario1.node[32].veinsmobility  acceleration  ETV
vector 232  RSUExampleScenario1.node[32].veinsmobility  co2emission  ETV
vector 235  RSUExampleScenario1.node[33].veinsmobility  posx  ETV
vector 236  RSUExampleScenario1.node[33].veinsmobility  posy  ETV
vector 237  RSUExampleScenario1.node[33].veinsmobility  speed  ETV
vector 238  RSUExampleScenario1.node[33].veinsmobility  acceleration  ETV
vector 239  RSUExampleScenario1.node[33].veinsmobility  co2emission  ETV
vector 242  RSUExampleScenario1.node[34].veinsmobility  posx  ETV
vector 243  RSUExampleScenario1.node[34].veinsmobility  posy  ETV
vector 244  RSUExampleScenario1.node[34].veinsmobility  speed  ETV
vector 245  RSUExampleScenario1.node[34].veinsmobility  acceleration  ETV
vector 246  RSUExampleScenario1.node[34].veinsmobility  co2emission  ETV
vector 249  RSUExampleScenario1.node[35].veinsmobility  posx  ETV
vector 250  RSUExampleScenario1.node[35].veinsmobility  posy  ETV
vector 251  RSUExampleScenario1.node[35].veinsmobility  speed  ETV
vector 252  RSUExampleScenario1.node[35].veinsmobility  acceleration  ETV
vector 253  RSUExampleScenario1.node[35].veinsmobility  co2emission  ETV
vector 256  RSUExampleScenario1.node[36].veinsmobility  posx  ETV
vector 257  RSUExampleScenario1.node[36].veinsmobility  posy  ETV
vector 258  RSUExampleScenario1.node[36].veinsmobility  speed  ETV
vector 259  RSUExampleScenario1.node[36].veinsmobility  acceleration  ETV
vector 260  RSUExampleScenario1.node[36].veinsmobility  co2emission  ETV
vector 263  RSUExampleScenario1.node[37].veinsmobility  posx  ETV
vector 264  RSUExampleScenario1.node[37].veinsmobility  posy  ETV
vector 265  RSUExampleScenario1.node[37].veinsmobility  speed  ETV
vector 266  RSUExampleScenario1.node[37].veinsmobility  acceleration  ETV
vector 267  RSUExampleScenario1.node[37].veinsmobility  co2emission  ETV
vector 270  RSUExampleScenario1.node[38].veinsmobility  posx  ETV
vector 271  RSUExampleScenario1.node[38].veinsmobility  posy  ETV
vector 272  RSUExampleScenario1.node[38].veinsmobility  speed  ETV
vector 273  RSUExampleScenario1.node[38].veinsmobility  acceleration  ETV
vector 274  RSUExampleScenario1.node[38].veinsmobility  co2emission  ETV
vector 277  RSUExampleScenario1.node[39].veinsmobility  posx  ETV
vector 278  RSUExampleScenario1.node[39].veinsmobility  posy  ETV
vector 279  RSUExampleScenario1.node[39].veinsmobility  speed  ETV
vector 280  RSUExampleScenario1.node[39].veinsmobility  acceleration  ETV
vector 281  RSUExampleScenario1.node[39].veinsmobility  co2emission  ETV
vector 284  RSUExampleScenario1.node[40].veinsmobility  posx  ETV
vector 285  RSUExampleScenario1.node[40].veinsmobility  posy  ETV
vector 286  RSUExampleScenario1.node[40].veinsmobility  speed  ETV
vector 287  RSUExampleScenario1.node[40].veinsmobility  acceleration  ETV
vector 288  RSUExampleScenario1.node[40].veinsmobility  co2emission  ETV
vector 291  RSUExampleScenario1.node[41].veinsmobility  posx  ETV
vector 292  RSUExampleScenario1.node[41].veinsmobility  posy  ETV
vector 293  RSUExampleScenario1.node[41].veinsmobility  speed  ETV
vector 294  RSUExampleScenario1.node[41].veinsmobility  acceleration  ETV
vector 295  RSUExampleScenario1.node[41].veinsmobility  co2emission  ETV
vector 298  RSUExampleScenario1.node[42].veinsmobility  posx  ETV
vector 299  RSUExampleScenario1.node[42].veinsmobility  posy  ETV
vector 300  RSUExampleScenario1.node[42].veinsmobility  speed  ETV
vector 301  RSUExampleScenario1.node[42].veinsmobility  acceleration  ETV
vector 302  RSUExampleScenario1.node[42].veinsmobility  co2emission  ETV
vector 305  RSUExampleScenario1.node[43].veinsmobility  posx  ETV
vector 306  RSUExampleScenario1.node[43].veinsmobility  posy  ETV
vector 307  RSUExampleScenario1.node[43].veinsmobility  speed  ETV
vector 308  RSUExampleScenario1.node[43].veinsmobility  acceleration  ETV
vector 309  RSUExampleScenario1.node[43].veinsmobility  co2emission  ETV
vector 312  RSUExampleScenario1.node[44].veinsmobility  posx  ETV
vector 313  RSUExampleScenario1.node[44].veinsmobility  posy  ETV
vector 314  RSUExampleScenario1.node[44].veinsmobility  speed  ETV
vector 315  RSUExampleScenario1.node[44].veinsmobility  acceleration  ETV
vector 316  RSUExampleScenario1.node[44].veinsmobility  co2emission  ETV
vector 319  RSUExampleScenario1.node[45].veinsmobility  posx  ETV
vector 320  RSUExampleScenario1.node[45].veinsmobility  posy  ETV
vector 321  RSUExampleScenario1.node[45].veinsmobility  speed  ETV
vector 322  RSUExampleScenario1.node[45].veinsmobility  acceleration  ETV
vector 323  RSUExampleScenario1.node[45].veinsmobility  co2emission  ETV
vector 326  RSUExampleScenario1.node[46].veinsmobility  posx  ETV
vector 327  RSUExampleScenario1.node[46].veinsmobility  posy  ETV
vector 328  RSUExampleScenario1.node[46].veinsmobility  speed  ETV
vector 329  RSUExampleScenario1.node[46].veinsmobility  acceleration  ETV
vector 330  RSUExampleScenario1.node[46].veinsmobility  co2emission  ETV
vector 333  RSUExampleScenario1.node[47].veinsmobility  posx  ETV
vector 334  RSUExampleScenario1.node[47].veinsmobility  posy  ETV
vector 335  RSUExampleScenario1.node[47].veinsmobility  speed  ETV
vector 336  RSUExampleScenario1.node[47].veinsmobility  acceleration  ETV
vector 337  RSUExampleScenario1.node[47].veinsmobility  co2emission  ETV
vector 340  RSUExampleScenario1.node[48].veinsmobility  posx  ETV
vector 341  RSUExampleScenario1.node[48].veinsmobility  posy  ETV
vector 342  RSUExampleScenario1.node[48].veinsmobility  speed  ETV
vector 343  RSUExampleScenario1.node[48].veinsmobility  acceleration  ETV
vector 344  RSUExampleScenario1.node[48].veinsmobility  co2emission  ETV
vector 347  RSUExampleScenario1.node[49].veinsmobility  posx  ETV
vector 348  RSUExampleScenario1.node[49].veinsmobility  posy  ETV
vector 349  RSUExampleScenario1.node[49].veinsmobility  speed  ETV
vector 350  RSUExampleScenario1.node[49].veinsmobility  acceleration  ETV
vector 351  RSUExampleScenario1.node[49].veinsmobility  co2emission  ETV
vector 354  RSUExampleScenario1.node[50].veinsmobility  posx  ETV
vector 355  RSUExampleScenario1.node[50].veinsmobility  posy  ETV
vector 356  RSUExampleScenario1.node[50].veinsmobility  speed  ETV
vector 357  RSUExampleScenario1.node[50].veinsmobility  acceleration  ETV
vector 358  RSUExampleScenario1.node[50].veinsmobility  co2emission  ETV
vector 361  RSUExampleScenario1.node[51].veinsmobility  posx  ETV
vector 362  RSUExampleScenario1.node[51].veinsmobility  posy  ETV
vector 363  RSUExampleScenario1.node[51].veinsmobility  speed  ETV
vector 364  RSUExampleScenario1.node[51].veinsmobility  acceleration  ETV
vector 365  RSUExampleScenario1.node[51].veinsmobility  co2emission  ETV
vector 368  RSUExampleScenario1.node[52].veinsmobility  posx  ETV
vector 369  RSUExampleScenario1.node[52].veinsmobility  posy  ETV
vector 370  RSUExampleScenario1.node[52].veinsmobility  speed  ETV
vector 371  RSUExampleScenario1.node[52].veinsmobility  acceleration  ETV
vector 372  RSUExampleScenario1.node[52].veinsmobility  co2emission  ETV
vector 375  RSUExampleScenario1.node[53].veinsmobility  posx  ETV
vector 376  RSUExampleScenario1.node[53].veinsmobility  posy  ETV
vector 377  RSUExampleScenario1.node[53].veinsmobility  speed  ETV
vector 378  RSUExampleScenario1.node[53].veinsmobility  acceleration  ETV
vector 379  RSUExampleScenario1.node[53].veinsmobility  co2emission  ETV
vector 382  RSUExampleScenario1.node[54].veinsmobility  posx  ETV
vector 383  RSUExampleScenario1.node[54].veinsmobility  posy  ETV
vector 384  RSUExampleScenario1.node[54].veinsmobility  speed  ETV
vector 385  RSUExampleScenario1.node[54].veinsmobility  acceleration  ETV
vector 386  RSUExampleScenario1.node[54].veinsmobility  co2emission  ETV
vector 389  RSUExampleScenario1.node[55].veinsmobility  posx  ETV
vector 390  RSUExampleScenario1.node[55].veinsmobility  posy  ETV
vector 391  RSUExampleScenario1.node[55].veinsmobility  speed  ETV
vector 392  RSUExampleScenario1.node[55].veinsmobility  acceleration  ETV
vector 393  RSUExampleScenario1.node[55].veinsmobility  co2emission  ETV
vector 396  RSUExampleScenario1.node[56].veinsmobility  posx  ETV
vector 397  RSUExampleScenario1.node[56].veinsmobility  posy  ETV
vector 398  RSUExampleScenario1.node[56].veinsmobility  speed  ETV
vector 399  RSUExampleScenario1.node[56].veinsmobility  acceleration  ETV
vector 400  RSUExampleScenario1.node[56].veinsmobility  co2emission  ETV
vector 403  RSUExampleScenario1.node[57].veinsmobility  posx  ETV
vector 404  RSUExampleScenario1.node[57].veinsmobility  posy  ETV
vector 405  RSUExampleScenario1.node[57].veinsmobility  speed  ETV
vector 406  RSUExampleScenario1.node[57].veinsmobility  acceleration  ETV
vector 407  RSUExampleScenario1.node[57].veinsmobility  co2emission  ETV
vector 410  RSUExampleScenario1.node[58].veinsmobility  posx  ETV
vector 411  RSUExampleScenario1.node[58].veinsmobility  posy  ETV
vector 412  RSUExampleScenario1.node[58].veinsmobility  speed  ETV
vector 413  RSUExampleScenario1.node[58].veinsmobility  acceleration  ETV
vector 414  RSUExampleScenario1.node[58].veinsmobility  co2emission  ETV
vector 417  RSUExampleScenario1.node[59].veinsmobility  posx  ETV
vector 418  RSUExampleScenario1.node[59].veinsmobility  posy  ETV
vector 419  RSUExampleScenario1.node[59].veinsmobility  speed  ETV
vector 420  RSUExampleScenario1.node[59].veinsmobility  acceleration  ETV
vector 421  RSUExampleScenario1.node[59].veinsmobility  co2emission  ETV
vector 424  RSUExampleScenario1.node[60].veinsmobility  posx  ETV
vector 425  RSUExampleScenario1.node[60].veinsmobility  posy  ETV
vector 426  RSUExampleScenario1.node[60].veinsmobility  speed  ETV
vector 427  RSUExampleScenario1.node[60].veinsmobility  acceleration  ETV
vector 428  RSUExampleScenario1.node[60].veinsmobility  co2emission  ETV
vector 431  RSUExampleScenario1.node[61].veinsmobility  posx  ETV
vector 432  RSUExampleScenario1.node[61].veinsmobility  posy  ETV
vector 433  RSUExampleScenario1.node[61].veinsmobility  speed  ETV
vector 434  RSUExampleScenario1.node[61].veinsmobility  acceleration  ETV
vector 435  RSUExampleScenario1.node[61].veinsmobility  co2emission  ETV
vector 438  RSUExampleScenario1.node[62].veinsmobility  posx  ETV
vector 439  RSUExampleScenario1.node[62].veinsmobility  posy  ETV
vector 440  RSUExampleScenario1.node[62].veinsmobility  speed  ETV
vector 441  RSUExampleScenario1.node[62].veinsmobility  acceleration  ETV
vector 442  RSUExampleScenario1.node[62].veinsmobility  co2emission  ETV
vector 445  RSUExampleScenario1.node[63].veinsmobility  posx  ETV
vector 446  RSUExampleScenario1.node[63].veinsmobility  posy  ETV
vector 447  RSUExampleScenario1.node[63].veinsmobility  speed  ETV
vector 448  RSUExampleScenario1.node[63].veinsmobility  acceleration  ETV
vector 449  RSUExampleScenario1.node[63].veinsmobility  co2emission  ETV
vector 452  RSUExampleScenario1.node[64].veinsmobility  posx  ETV
vector 453  RSUExampleScenario1.node[64].veinsmobility  posy  ETV
vector 454  RSUExampleScenario1.node[64].veinsmobility  speed  ETV
vector 455  RSUExampleScenario1.node[64].veinsmobility  acceleration  ETV
vector 456  RSUExampleScenario1.node[64].veinsmobility  co2emission  ETV
vector 459  RSUExampleScenario1.node[65].veinsmobility  posx  ETV
vector 460  RSUExampleScenario1.node[65].veinsmobility  posy  ETV
vector 461  RSUExampleScenario1.node[65].veinsmobility  speed  ETV
vector 462  RSUExampleScenario1.node[65].veinsmobility  acceleration  ETV
vector 463  RSUExampleScenario1.node[65].veinsmobility  co2emission  ETV
vector 466  RSUExampleScenario1.node[66].veinsmobility  posx  ETV
vector 467  RSUExampleScenario1.node[66].veinsmobility  posy  ETV
vector 468  RSUExampleScenario1.node[66].veinsmobility  speed  ETV
vector 469  RSUExampleScenario1.node[66].veinsmobility  acceleration  ETV
vector 470  RSUExampleScenario1.node[66].veinsmobility  co2emission  ETV
vector 473  RSUExampleScenario1.node[67].veinsmobility  posx  ETV
vector 474  RSUExampleScenario1.node[67].veinsmobility  posy  ETV
vector 475  RSUExampleScenario1.node[67].veinsmobility  speed  ETV
vector 476  RSUExampleScenario1.node[67].veinsmobility  acceleration  ETV
vector 477  RSUExampleScenario1.node[67].veinsmobility  co2emission  ETV
vector 480  RSUExampleScenario1.node[68].veinsmobility  posx  ETV
vector 481  RSUExampleScenario1.node[68].veinsmobility  posy  ETV
vector 482  RSUExampleScenario1.node[68].veinsmobility  speed  ETV
vector 483  RSUExampleScenario1.node[68].veinsmobility  acceleration  ETV
vector 484  RSUExampleScenario1.node[68].veinsmobility  co2emission  ETV
vector 487  RSUExampleScenario1.node[69].veinsmobility  posx  ETV
vector 488  RSUExampleScenario1.node[69].veinsmobility  posy  ETV
vector 489  RSUExampleScenario1.node[69].veinsmobility  speed  ETV
vector 490  RSUExampleScenario1.node[69].veinsmobility  acceleration  ETV
vector 491  RSUExampleScenario1.node[69].veinsmobility  co2emission  ETV
vector 494  RSUExampleScenario1.node[70].veinsmobility  posx  ETV
vector 495  RSUExampleScenario1.node[70].veinsmobility  posy  ETV
vector 496  RSUExampleScenario1.node[70].veinsmobility  speed  ETV
vector 497  RSUExampleScenario1.node[70].veinsmobility  acceleration  ETV
vector 498  RSUExampleScenario1.node[70].veinsmobility  co2emission  ETV
vector 501  RSUExampleScenario1.node[71].veinsmobility  posx  ETV
vector 502  RSUExampleScenario1.node[71].veinsmobility  posy  ETV
vector 503  RSUExampleScenario1.node[71].veinsmobility  speed  ETV
vector 504  RSUExampleScenario1.node[71].veinsmobility  acceleration  ETV
vector 505  RSUExampleScenario1.node[71].veinsmobility  co2emission  ETV
vector 508  RSUExampleScenario1.node[72].veinsmobility  posx  ETV
vector 509  RSUExampleScenario1.node[72].veinsmobility  posy  ETV
vector 510  RSUExampleScenario1.node[72].veinsmobility  speed  ETV
vector 511  RSUExampleScenario1.node[72].veinsmobility  acceleration  ETV
vector 512  RSUExampleScenario1.node[72].veinsmobility  co2emission  ETV
vector 515  RSUExampleScenario1.node[73].veinsmobility  posx  ETV
vector 516  RSUExampleScenario1.node[73].veinsmobility  posy  ETV
vector 517  RSUExampleScenario1.node[73].veinsmobility  speed  ETV
vector 518  RSUExampleScenario1.node[73].veinsmobility  acceleration  ETV
vector 519  RSUExampleScenario1.node[73].veinsmobility  co2emission  ETV
vector 522  RSUExampleScenario1.node[74].veinsmobility  posx  ETV
vector 523  RSUExampleScenario1.node[74].veinsmobility  posy  ETV
vector 524  RSUExampleScenario1.node[74].veinsmobility  speed  ETV
vector 525  RSUExampleScenario1.node[74].veinsmobility  acceleration  ETV
vector 526  RSUExampleScenario1.node[74].veinsmobility  co2emission  ETV
vector 529  RSUExampleScenario1.node[75].veinsmobility  posx  ETV
vector 530  RSUExampleScenario1.node[75].veinsmobility  posy  ETV
vector 531  RSUExampleScenario1.node[75].veinsmobility  speed  ETV
vector 532  RSUExampleScenario1.node[75].veinsmobility  acceleration  ETV
vector 533  RSUExampleScenario1.node[75].veinsmobility  co2emission  ETV
vector 536  RSUExampleScenario1.node[76].veinsmobility  posx  ETV
vector 537  RSUExampleScenario1.node[76].veinsmobility  posy  ETV
vector 538  RSUExampleScenario1.node[76].veinsmobility  speed  ETV
vector 539  RSUExampleScenario1.node[76].veinsmobility  acceleration  ETV
vector 540  RSUExampleScenario1.node[76].veinsmobility  co2emission  ETV
vector 543  RSUExampleScenario1.node[77].veinsmobility  posx  ETV
vector 544  RSUExampleScenario1.node[77].veinsmobility  posy  ETV
vector 545  RSUExampleScenario1.node[77].veinsmobility  speed  ETV
vector 546  RSUExampleScenario1.node[77].veinsmobility  acceleration  ETV
vector 547  RSUExampleScenario1.node[77].veinsmobility  co2emission  ETV
vector 550  RSUExampleScenario1.node[78].veinsmobility  posx  ETV
vector 551  RSUExampleScenario1.node[78].veinsmobility  posy  ETV
vector 552  RSUExampleScenario1.node[78].veinsmobility  speed  ETV
vector 553  RSUExampleScenario1.node[78].veinsmobility  acceleration  ETV
vector 554  RSUExampleScenario1.node[78].veinsmobility  co2emission  ETV
8	57	3	3.9690439751639
8	80	4	4.8734986088453
8	128	5	6.2068327255978
8	176	6	7.2118621755177
8	224	7	8.2287933875323
8	309	8	3.4112383357952
8	394	9	2.4244807387756
8	479	10	1.8137009457961
8	613	11	2.2898099022095
8	747	12	2.0020020998074
8	881	13	1.8482360798459
8	1076	14	2.0456752375859
8	1271	15	1.9700834342329
8	1466	16	2.0938888010057
8	1734	17	1.859207449473
8	2002	18	2.4171230160978
8	2270	19	2.0237034716781
8	2623	20	1.8521438049225
8	2976	21	2.1257236745966
8	3329	22	2.0366294719502
8	3779	23	1.74537163726
8	4229	24	2.1502956540601
8	4679	25	2.2389467531681
8	5238	26	1.7848725270982
8	5797	27	2.051730205351
8	6356	28	2.2427409462865
8	7036	29	1.7022147078037
8	7716	30	2.3567141215104
8	8396	31	1.9102893269045
8	9201	32	2.0040900155971
8	10006	33	2.0151030434548
8	10811	34	1.90153271754
8	11745	35	2.1461547056442
8	12679	36	2.2614097100142
8	13613	37	1.639479002514
8	14680	38	2.3239530621153
8	15747	39	2.0230537126828
8	16814	40	2.1488095779912
8	18018	41	1.7877186807576
8	19222	42	2.0162800868348
8	20426	43	2.0960859592891
8	21771	44	2.1428991213303
8	23116	45	2.0474689391517
8	24461	46	2.1319112378693
8	25951	47	1.7879974387092
8	27433	48	1.9215058045462
8	28923	49	2.2248398341723
8	30562	50	1.7882314779205
8	32201	51	2.0892674610427
8	33840	52	2.2933372213376
8	35632	53	2.0259678524202
8	37424	54	1.9217596676982
8	39224	55	1.831857315102
8	41173	56	2.3044124686806
8	43130	57	2.1782337232864
8	45095	58	1.9677639009111
8	47213	59	1.8933538925324
8	49339	60	2.1807355325911
8	51473	61	2.0966236622336
8	53764	62	2.00949126433
8	56063	63	1.8692631500208
8	58362	64	2.1359313596562
8	60830	65	2.0047320365498
8	63298	66	1.8030748658723
8	65774	67	2.196976982065
8	68423	68	2.1737934449312
8	71080	69	1.8562277356855
8	73729	70	1.8665724238085
8	76563	71	2.4199281055534
8	79405	72	1.8483926477794
8	82247	73	2.1919268510684
8	85270	74	2.0129741162021
8	88301	75	1.9420243103197
8	91332	76	1.8414497967636
8	94548	77	1.9629223421252
8	97764	78	2.4273905948084
8	100988	79	1.6909868861138
8	104401	80	2.2694672030176
8	107815	81	0.973
8	111236	82	0.973
8	114850	83	0.973
8	118472	84	0.973
8	122102	85	0.973
8	125929	86	0.973
8	129764	87	0.973
8	133607	88	0.973
8	137659	89	0.973
8	141711	90	0.973
8	145795	91	0.973
8	150084	92	0.973
8	154503	93	0.973
8	158816	94	0.973
8	165214	95	0.973
8	169741	96	0.973
8	177565	97	0.973
8	182356	98	0.973
8	189645	99	0.973
8	194452	100	0.973
8	199847	101	0.973
8	204887	102	0.973
8	210026	103	0.973
8	215319	104	0.973
8	220579	105	0.973
8	225888	106	0.973
8	231403	107	0.973
8	236919	108	0.973
8	242458	109	0.973
8	248269	110	0.973
8	254080	111	0.973
8	259907	112	0.973
8	265983	113	0.973
8	272059	114	0.973
8	278151	115	0.973
8	284496	116	0.973
8	290841	117	0.973
8	297202	118	0.973
8	303820	119	0.973
8	310438	120	0.973
8	317029	121	0.973
8	323892	122	0.973
8	330702	123	0.973
8	337541	124	0.973
8	344609	125	0.973
8	351713	126	0.973
8	358809	127	0.973
8	366166	128	0.973
8	373515	129	0.973
8	380848	130	0.973
8	388455	131	2.5073284478885
8	396053	132	3.1855032676638
8	403616	133	4.0298270411153
8	411471	134	5.3693937003608
8	419362	135	6.7211454286473
8	427261	136	4.6041894863995
8	435441	137	1.5993324189865
8	443597	138	1.6075213150868
8	451721	139	1.7666861477003
8	460085	140	1.9414891396628
8	468470	141	1.7012831557131
8	476823	142	1.9450928481791
8	485481	143	1.6450199011224
8	494163	144	1.6517330995136
8	502821	145	1.7840917148868
8	511780	146	3.7439866090475
8	520747	147	8.3004937038
8	529722	148	3.2525242249735
8	539018	149	1.7270699607589
8	548338	150	2.3570544870323
8	557682	151	1.9783405909373
8	567343	152	1.8203334457609
8	577012	153	2.1886179118108
8	586679	154	1.6262437425028
8	596725	155	0.973
8	606766	156	0.973
8	616852	157	0.973
8	627263	158	0.973
8	637661	159	5.2520347612017
8	648128	160	5.3122980216292
8	658872	161	6.7436451246805
8	669632	162	7.8086773015734
8	680415	163	6.7525405603555
8	691532	164	2.1375104017833
8	702664	165	1.899273448861
8	713865	166	1.9875226284884
8	725419	167	2.350609856177
8	736981	168	1.8454353930414
8	748575	169	2.2516412971524
8	760518	170	1.3841203204331
8	772485	171	2.1590210178012
8	784500	172	1.9589610099415
8	796860	173	1.8129233287731
8	809236	174	0.973
8	821660	175	0.973
8	834441	176	0.973
8	847238	177	0.973
8	860083	178	1.4365101363272
8	873265	179	4.4817164660614
8	886495	180	1.6813793428926
8	899702	181	2.8804546031208
8	913329	182	0.973
8	927004	183	0.973
8	940623	184	4.9906481122547
8	954715	185	5.5654092392237
8	968847	186	6.4492451682231
8	983067	187	7.4117835878118
8	997636	188	7.060027456523
8	1012293	189	2.1125798214839
8	1026958	190	1.9666877144187
8	1042064	191	1.9886544104186
8	1057266	192	2.1008465506808
8	1072540	193	1.8851162462271
8	1088211	194	2.184579984197
8	1103946	195	2.0711664755953
8	1119761	196	1.8605533495143
8	1135953	197	2.1605104844723
8	1152169	198	1.9497402425456
8	1168457	199	0.973
8	1185174	200	0.973
8	1201939	201	0.973
8	1218736	202	0.973
8	1235958	203	4.3208205632682
8	1253212	204	5.0485402473881
8	1270522	205	6.5321551374933
8	1288229	206	7.5414074950294
8	1305976	207	8.4188050874659
8	1323803	208	0.973
8	1342031	209	0.973
8	1360355	210	0.973
8	1378683	211	1.5244094272684
8	1397484	212	1.4711086274827
8	1416381	213	1.593716051841
8	1435366	214	1.6829253344076
8	1454676	215	1.5821412744393
8	1474158	216	1.3640083189677
8	1493744	217	0.973
8	1513719	218	0.973
8	1533806	219	4.3382692823141
8	1553903	220	0.973
8	1574471	221	1.503105952319
8	1595095	222	4.7630069711231
8	1615887	223	0.973
8	1637060	224	0.973
8	1658317	225	4.6754566394899
8	1679690	226	5.1841246381454
8	1701475	227	1.8761115451323
8	1723481	228	1.3478964185759
8	1745511	229	1.6915975287092
8	1768010	230	1.4125058760839
8	1790637	231	1.7220210817985
8	1813392	232	1.6359730448021
8	1836644	233	1.3353307979643
8	1859928	234	1.6325227317399
8	1883292	235	1.6432345511948
8	1907213	236	1.6380526125154
8	1931262	237	1.3329937113435
7	57	3	1.8350836683181
7	80	4	1.8271086537745
7	128	5	1.9700068054721
7	176	6	1.9440954117314
7	224	7	1.9251633647294
7	309	8	0.4143542271355
7	394	9	0.11476667602547
7	479	10	-0.064753184660804
7	613	11	0.074470334358047
7	747	12	-0.010534379172604
7	881	13	-0.054705263138748
7	1076	14	0.0039751141518352
7	1271	15	-0.018007996121888
7	1466	16	0.018320323363879
7	1734	17	-0.050210119087716
7	2002	18	0.11217186692171
7	2270	19	-0.0043140294868493
7	2623	20	-0.053758448585867
7	2976	21	0.026805718403775
7	3329	22	0.00032772323349484
7	3779	23	-0.084154344759881
7	4229	24	0.03568891238654
7	4679	25	0.060029244376347
7	5238	26	-0.072922072419898
7	5797	27	0.0065030131535604
7	6356	28	0.061332354836631
7	7036	29	-0.096905982799361
7	7716	30	0.095237014018931
7	8396	31	-0.036329523364548
7	9201	32	-0.008157867155969
7	10006	33	-0.0047346421354444
7	10811	34	-0.037542869518512
7	11745	35	0.034423825838603
7	12679	36	0.066438733455726
7	13613	37	-0.11552789928857
7	14680	38	0.086069189966656
7	15747	39	-0.0032880703615952
7	16814	40	0.033024489311501
7	18018	41	-0.072280976942274
7	19222	42	-0.0040022042999048
7	20426	43	0.019193109571933
7	21771	44	0.032087657169905
7	23116	45	0.0036153634870431
7	24461	46	0.027803516923449
7	25951	47	-0.072357572920154
7	27433	48	-0.031673493508714
7	28923	49	0.056978756680618
7	30562	50	-0.071131851973478
7	32201	51	0.018313341932371
7	33840	52	0.076508185563144
7	35632	53	-0.0028218990401356
7	37424	54	-0.032860382387881
7	39224	55	-0.058112253895962
7	41173	56	0.080285802846776
7	43130	57	0.04138876616722
7	45095	58	-0.020411239732057
7	47213	59	-0.041368094012141
7	49339	60	0.042765998076646
7	51473	61	0.017252542269416
7	53764	62	-0.0083314176602283
7	56063	63	-0.048623464845587
7	58362	64	0.029788824331481
7	60830	65	-0.0089182524802158
7	63298	66	-0.067145611704328
7	65774	67	0.048843853662257
7	68423	68	0.040590221299789
7	71080	69	-0.052261475473642
7	73729	70	-0.04789198257029
7	76563	71	0.11313406411791
7	79405	72	-0.054869822326582
7	82247	73	0.045838538329118
7	85270	74	-0.007042522497942
7	88301	75	-0.027326163398101
7	91332	76	-0.055769632093144
7	94548	77	-0.01894804090727
7	97764	78	0.11544969499111
7	100988	79	-0.10060345996637
7	104401	80	0.069710287365597
7	107815	81	-4.5
7	111236	82	-4.5
7	114850	83	-4.5
7	118472	84	-0.46155561008957
7	122102	85	0
7	125929	86	0
7	129764	87	0
7	133607	88	0
7	137659	89	0
7	141711	90	0
7	145795	91	0
7	150084	92	0
7	154503	93	0
7	158816	94	0
7	165214	95	0
7	169741	96	0
7	177565	97	0
7	182356	98	0
7	189645	99	0
7	194452	100	0
7	199847	101	0
7	204887	102	0
7	210026	103	0
7	215319	104	0
7	220579	105	0
7	225888	106	0
7	231403	107	0
7	236919	108	0
7	242458	109	0
7	248269	110	0
7	254080	111	0
7	259907	112	0
7	265983	113	0
7	272059	114	0
7	278151	115	0
7	284496	116	0
7	290841	117	0
7	297202	118	0
7	303820	119	0
7	310438	120	0
7	317029	121	0
7	323892	122	0
7	330702	123	0
7	337541	124	0
7	344609	125	0
7	351713	126	0
7	358809	127	0
7	366166	128	0
7	373515	129	0
7	380848	130	0
7	388455	131	2.3089295971059
7	396053	132	1.8592936443206
7	403616	133	1.8120352502982
7	411471	134	1.9923024444212
7	419362	135	2.0777393758297
7	427261	136	1.057777415569
7	435441	137	-0.063094851989298
7	443597	138	-0.058528452957981
7	451721	139	0.001537462957204
7	460085	140	0.065146954269148
7	468470	141	-0.0243313588039
7	476823	142	0.065005120798013
7	485481	143	-0.046006263820454
7	494163	144	-0.04234409867553
7	502821	145	0.0073279662011192
7	511780	146	0.681965187944
7	520747	147	1.920199324179
7	529722	148	0.36106137708994
7	539018	149	-0.089693636996673
7	548338	150	0.09500533811981
7	557682	151	-0.016896535814741
7	567343	152	-0.062236928390339
7	577012	153	0.046127578595188
7	586679	154	-0.11858914206256
7	596725	155	-3.4399801762713
7	606766	156	-2.961272076169
7	616852	157	-2.7003354134487
7	627263	158	-0.30201446047411
7	637661	159	2.3272713867249
7	648128	160	1.8083438387141
7	658872	161	1.9756650862377
7	669632	162	1.9634137909231
7	680415	163	1.4088851816964
7	691532	164	0.031166836337652
7	702664	165	-0.038675943496637
7	713865	166	-0.01198268917622
7	725419	167	0.093021854569669
7	736981	168	-0.055421947850846
7	748575	169	0.063376101276372
7	760518	170	-0.19074944594409
7	772485	171	0.040875288681127
7	784500	172	-0.01856053477386
7	796860	173	-0.060823079333641
7	809236	174	-0.41374380733799
7	821660	175	-3.339276341398
7	834441	176	-3.0306712525502
7	847238	177	-2.5341190474816
7	860083	178	0.090708341998765
7	873265	179	1.9433755860904
7	886495	180	0.14120723510395
7	899702	181	0.77268967181633
7	913329	182	-2.7060555043384
7	927004	183	-0.19692953931264
7	940623	184	2.192614465598
7	954715	185	1.9205652986676
7	968847	186	1.8727549997903
7	983067	187	1.8611530600861
7	997636	188	1.5094968121063
7	1012293	189	0.025972771884408
7	1026958	190	-0.017167341709136
7	1042064	191	-0.010283732300159
7	1057266	192	0.022617745080497
7	1072540	193	-0.040817247370724
7	1088211	194	0.047449083665851
7	1103946	195	0.013117440606003
7	1119761	196	-0.048512925049291
7	1135953	197	0.040093859722838
7	1152169	198	-0.02228279760573
7	1168457	199	-1.7923429205327
7	1185174	200	-3.155116946384
7	1201939	201	-2.9453416371276
7	1218736	202	-2.4437257484139
7	1235958	203	2.1411908335384
7	1253212	204	1.9305829116469
7	1270522	205	2.0882900125114
7	1288229	206	2.0269461697037
7	1305976	207	1.9492050713697
7	1323803	208	-1.4208767316179
7	1342031	209	-3.0067807791883
7	1360355	210	-0.92057583121583
7	1378683	211	-0.01903252408607
7	1397484	212	-0.0444597798842
7	1416381	213	0.016655899775214
7	1435366	214	0.059049149691127
7	1454676	215	0.0084889379679218
7	1474158	216	-0.098063511310611
7	1493744	217	-2.17528595913
7	1513719	218	-2.4021542797429
7	1533806	219	2.1111737827451
7	1553903	220	-1.297920000903
7	1574471	221	0.14541765236027
7	1595095	222	2.0561954706162
7	1615887	223	-1.6598033054887
7	1637060	224	-0.81717593550924
7	1658317	225	2.1265472610178
7	1679690	226	1.8453943303763
7	1701475	227	0.15548943133141
7	1723481	228	-0.10581182386261
7	1745511	229	0.065129160750658
7	1768010	230	-0.072970588123425
7	1790637	231	0.080072482209651
7	1813392	232	0.035618753591553
7	1836644	233	-0.1120757498499
7	1859928	234	0.036756913166027
7	1883292	235	0.040576579307672
7	1907213	236	0.036585792999249
7	1931262	237	-0.1132702366286
6	34	2	3.9572089270348
6	57	3	5.7922925953529
6	80	4	7.6194012491274
6	128	5	9.5894080545995
6	176	6	11.533503466331
6	224	7	13.45866683106
6	309	8	13.873021058196
6	394	9	13.987787734221
6	479	10	13.92303454956
6	613	11	13.997504883918
6	747	12	13.986970504746
6	881	13	13.932265241607
6	1076	14	13.936240355759
6	1271	15	13.918232359637
6	1466	16	13.936552683001
6	1734	17	13.886342563913
6	2002	18	13.998514430835
6	2270	19	13.994200401348
6	2623	20	13.940441952762
6	2976	21	13.967247671166
6	3329	22	13.967575394399
6	3779	23	13.88342104964
6	4229	24	13.919109962026
6	4679	25	13.979139206402
6	5238	26	13.906217133983
6	5797	27	13.912720147136
6	6356	28	13.974052501973
6	7036	29	13.877146519173
6	7716	30	13.972383533192
6	8396	31	13.936054009828
6	9201	32	13.927896142672
6	10006	33	13.923161500536
6	10811	34	13.885618631018
6	11745	35	13.920042456856
6	12679	36	13.986481190312
6	13613	37	13.870953291024
6	14680	38	13.95702248099
6	15747	39	13.953734410629
6	16814	40	13.98675889994
6	18018	41	13.914477922998
6	19222	42	13.910475718698
6	20426	43	13.92966882827
6	21771	44	13.96175648544
6	23116	45	13.965371848927
6	24461	46	13.99317536585
6	25951	47	13.92081779293
6	27433	48	13.889144299421
6	28923	49	13.946123056102
6	30562	50	13.874991204129
6	32201	51	13.893304546061
6	33840	52	13.969812731624
6	35632	53	13.966990832584
6	37424	54	13.934130450196
6	39224	55	13.8760181963
6	41173	56	13.956303999147
6	43130	57	13.997692765314
6	45095	58	13.977281525582
6	47213	59	13.93591343157
6	49339	60	13.978679429647
6	51473	61	13.995931971916
6	53764	62	13.987600554256
6	56063	63	13.93897708941
6	58362	64	13.968765913742
6	60830	65	13.959847661261
6	63298	66	13.892702049557
6	65774	67	13.941545903219
6	68423	68	13.982136124519
6	71080	69	13.929874649046
6	73729	70	13.881982666475
6	76563	71	13.995116730593
6	79405	72	13.940246908267
6	82247	73	13.986085446596
6	85270	74	13.979042924098
6	88301	75	13.9517167607
6	91332	76	13.895947128606
6	94548	77	13.876999087699
6	97764	78	13.99244878269
6	100988	79	13.891845322724
6	104401	80	13.96155561009
6	107815	81	9.4615556100896
6	111236	82	4.9615556100896
6	114850	83	0.46155561008957
6	118472	84	0
6	122102	85	0
6	125929	86	0
6	129764	87	0
6	133607	88	0
6	137659	89	0
6	141711	90	0
6	145795	91	0
6	150084	92	0
6	154503	93	0
6	158816	94	0
6	165214	95	0
6	169741	96	0
6	177565	97	0
6	182356	98	0
6	189645	99	0
6	194452	100	0
6	199847	101	0
6	204887	102	0
6	210026	103	0
6	215319	104	0
6	220579	105	0
6	225888	106	0
6	231403	107	0
6	236919	108	0
6	242458	109	0
6	248269	110	0
6	254080	111	0
6	259907	112	0
6	265983	113	0
6	272059	114	0
6	278151	115	0
6	284496	116	0
6	290841	117	0
6	297202	118	0
6	303820	119	0
6	310438	120	0
6	317029	121	0
6	323892	122	0
6	330702	123	0
6	337541	124	0
6	344609	125	0
6	351713	126	0
6	358809	127	0
6	366166	128	0
6	373515	129	0
6	380848	130	0
6	388455	131	2.3089295971059
6	396053	132	4.1682232414265
6	403616	133	5.9802584917247
6	411471	134	7.9725609361459
6	419362	135	10.050300311976
6	427261	136	11.108077727545
6	435441	137	11.044982875555
6	443597	138	10.986454422597
6	451721	139	10.987991885555
6	460085	140	11.053138839824
6	468470	141	11.02880748102
6	476823	142	11.093812601818
6	485481	143	11.047806337997
6	494163	144	11.005462239322
6	502821	145	11.012790205523
6	511780	146	11.694755393467
6	520747	147	13.614954717646
6	529722	148	13.976016094736
6	539018	149	13.886322457739
6	548338	150	13.981327795859
6	557682	151	13.964431260044
6	567343	152	13.902194331654
6	577012	153	13.948321910249
6	586679	154	13.829732768187
6	596725	155	10.389752591915
6	606766	156	7.4284805157462
6	616852	157	4.7281451022975
6	627263	158	4.4261306418234
6	637661	159	6.7534020285483
6	648128	160	8.5617458672624
6	658872	161	10.5374109535
6	669632	162	12.500824744423
6	680415	163	13.90970992612
6	691532	164	13.940876762457
6	702664	165	13.902200818961
6	713865	166	13.890218129784
6	725419	167	13.983239984354
6	736981	168	13.927818036503
6	748575	169	13.99119413778
6	760518	170	13.800444691835
6	772485	171	13.841319980517
6	784500	172	13.822759445743
6	796860	173	13.761936366409
6	809236	174	13.348192559071
6	821660	175	10.008916217673
6	834441	176	6.9782449651229
6	847238	177	4.4441259176413
6	860083	178	4.53483425964
6	873265	179	6.4782098457304
6	886495	180	6.6194170808344
6	899702	181	7.3921067526507
6	913329	182	4.6860512483123
6	927004	183	4.4891217089996
6	940623	184	6.6817361745977
6	954715	185	8.6023014732653
6	968847	186	10.475056473056
6	983067	187	12.336209533142
6	997636	188	13.845706345248
6	1012293	189	13.871679117132
6	1026958	190	13.854511775423
6	1042064	191	13.844228043123
6	1057266	192	13.866845788204
6	1072540	193	13.826028540833
6	1088211	194	13.873477624499
6	1103946	195	13.886595065105
6	1119761	196	13.838082140055
6	1135953	197	13.878175999778
6	1152169	198	13.855893202173
6	1168457	199	12.06355028164
6	1185174	200	8.9084333352558
6	1201939	201	5.9630916981282
6	1218736	202	3.5193659497143
6	1235958	203	5.6605567832527
6	1253212	204	7.5911396948996
6	1270522	205	9.679429707411
6	1288229	206	11.706375877115
6	1305976	207	13.655580948484
6	1323803	208	12.234704216867
6	1342031	209	9.2279234376783
6	1360355	210	8.3073476064624
6	1378683	211	8.2883150823764
6	1397484	212	8.2438553024922
6	1416381	213	8.2605112022674
6	1435366	214	8.3195603519585
6	1454676	215	8.3280492899264
6	1474158	216	8.2299857786158
6	1493744	217	6.0546998194858
6	1513719	218	3.6525455397429
6	1533806	219	5.7637193224881
6	1553903	220	4.465799321585
6	1574471	221	4.6112169739453
6	1595095	222	6.6674124445615
6	1615887	223	5.0076091390728
6	1637060	224	4.1904332035636
6	1658317	225	6.3169804645814
6	1679690	226	8.1623747949577
6	1701475	227	8.3178642262891
6	1723481	228	8.2120524024265
6	1745511	229	8.2771815631771
6	1768010	230	8.2042109750537
6	1790637	231	8.2842834572634
6	1813392	232	8.3199022108549
6	1836644	233	8.207826461005
6	1859928	234	8.2445833741711
6	1883292	235	8.2851599534787
6	1907213	236	8.321745746478
6	1931262	237	8.2084755098494
5	11	1	6531.1346674873
5	34	2	6531.1346674873
5	57	3	6528.6604084302
5	80	4	6524.662074139
5	128	5	6519.1096391405
5	176	6	6512.0548970692
5	224	7	6503.4441856086
5	309	8	6493.266058579
5	394	9	6482.6262582733
5	479	10	6472.2096492476
5	613	11	6462.3364183829
5	747	12	6452.8317343883
5	881	13	6443.7929354508
5	1076	14	6434.9903514857
5	1271	15	6426.1788846522
5	1466	16	6418.0917677557
5	1734	17	6410.0021287568
5	2002	18	6401.996390843
5	2270	19	6394.2861074943
5	2623	20	6386.5730544511
5	2976	21	6379.6411985288
5	3329	22	6372.7507191665
5	3779	23	6365.8696860128
5	4229	24	6358.984273339
5	4679	25	6351.6322382599
5	5238	26	6344.2871113747
5	5797	27	6336.9405111519
5	6356	28	6329.0768264433
5	7036	29	6319.925280941
5	7716	30	6313.3831535761
5	8396	31	6302.4486828353
5	9201	32	6291.5254940926
5	10006	33	6280.5979175732
5	10811	34	6269.6725336854
5	11745	35	6258.1625415293
5	12679	36	6246.658984111
5	13613	37	6234.8226056566
5	14680	38	6222.6725203279
5	15747	39	6210.5154938307
5	16814	40	6198.3668197557
5	18018	41	6186.2110895494
5	19222	42	6174.0655948197
5	20426	43	6161.9080439745
5	21771	44	6149.7415560873
5	23116	45	6137.6166332424
5	24461	46	6125.4573444864
5	25951	47	6113.307324196
5	27433	48	6101.1600378628
5	28923	49	6088.98844973
5	30562	50	6076.7148012716
5	32201	51	6064.4721075878
5	33840	52	6052.2125941536
5	35632	53	6039.9297174989
5	37424	54	6027.671621201
5	39224	55	6015.3710918924
5	41173	56	6003.0378305191
5	43130	57	5990.6942066739
5	45095	58	5978.3507653349
5	47213	59	5966.0044496751
5	49339	60	5953.6617359765
5	51473	61	5944.6335859361
5	53764	62	5932.6654312335
5	56063	63	5920.2920138646
5	58362	64	5907.9357777156
5	60830	65	5895.5690412763
5	63298	66	5883.2048963838
5	65774	67	5870.8426206608
5	68423	68	5858.4862641474
5	71080	69	5846.1255601065
5	73729	70	5832.232595504
5	76563	71	5819.8859552766
5	79405	72	5807.5216996939
5	82247	73	5795.1687937229
5	85270	74	5782.8113145719
5	88301	75	5770.4492610928
5	91332	76	5758.0932616877
5	94548	77	5745.7393261677
5	97764	78	5733.4705202111
5	100988	79	5721.1752448358
5	104401	80	5708.8845225291
5	107815	81	5698.9506374387
5	111236	82	5687.7933760029
5	114850	83	5681.0071095081
5	118472	84	5678.5918379543
5	122102	85	5678.5907155207
5	125929	86	5678.5907155207
5	129764	87	5678.5907155207
5	133607	88	5678.5907155207
5	137659	89	5678.5907155207
5	141711	90	5678.5907155207
5	145795	91	5678.5907155207
5	150084	92	5678.5907155207
5	154503	93	5678.5907155207
5	158816	94	5678.5907155207
5	165214	95	5678.5907155207
5	169741	96	5678.5907155207
5	177565	97	5678.5907155207
5	182356	98	5678.5907155207
5	189645	99	5678.5907155207
5	194452	100	5678.5907155207
5	199847	101	5678.5907155207
5	204887	102	5678.5907155207
5	210026	103	5678.5907155207
5	215319	104	5678.5907155207
5	220579	105	5678.5907155207
5	225888	106	5678.5907155207
5	231403	107	5678.5907155207
5	236919	108	5678.5907155207
5	242458	109	5678.5907155207
5	248269	110	5678.5907155207
5	254080	111	5678.5907155207
5	259907	112	5678.5907155207
5	265983	113	5678.5907155207
5	272059	114	5678.5907155207
5	278151	115	5678.5907155207
5	284496	116	5678.5907155207
5	290841	117	5678.5907155207
5	297202	118	5678.5907155207
5	303820	119	5678.5907155207
5	310438	120	5678.5907155207
5	317029	121	5678.5907155207
5	323892	122	5678.5907155207
5	330702	123	5678.5907155207
5	337541	124	5678.5907155207
5	344609	125	5678.5907155207
5	351713	126	5678.5907155207
5	358809	127	5678.5907155207
5	366166	128	5678.5907155207
5	373515	129	5678.5907155207
5	380848	130	5678.5907155207
5	388455	131	5678.5907155207
5	396053	132	5677.3253432422
5	403616	133	5674.228257877
5	411471	134	5669.5804914092
5	419362	135	5663.1838326549
5	427261	136	5654.9482363137
5	435441	137	5644.9420886932
5	443597	138	5634.150763385
5	451721	139	5623.2375149358
5	460085	140	5613.1045309036
5	468470	141	5604.4019183073
5	476823	142	5599.3877181653
5	485481	143	5598.1472980687
5	494163	144	5599.8021791608
5	502821	145	5604.7095158606
5	511780	146	5613.1480258931
5	520747	147	5622.5026032333
5	529722	148	5634.9275508006
5	539018	149	5648.3664235598
5	548338	150	5658.111474706
5	557682	151	5666.4689318903
5	567343	152	5674.8031630173
5	577012	153	5681.8223468565
5	586679	154	5688.8253460813
5	596725	155	5695.8331623681
5	606766	156	5701.8243642712
5	616852	157	5706.133739231
5	627263	158	5708.9241870733
5	637661	159	5710.8181787401
5	648128	160	5713.3677298913
5	658872	161	5717.606372656
5	669632	162	5722.5758399083
5	680415	163	5728.4157213419
5	691532	164	5735.1785113016
5	702664	165	5742.1930050968
5	713865	166	5749.5801648131
5	725419	167	5756.9744086835
5	736981	168	5764.3485702572
5	748575	169	5771.6539767923
5	760518	170	5778.9606590544
5	772485	171	5786.2144097328
5	784500	172	5793.6191233794
5	796860	173	5801.0433048688
5	809236	174	5808.4939547338
5	821660	175	5817.4424509242
5	834441	176	5824.9057873872
5	847238	177	5830.882819288
5	860083	178	5834.9210271379
5	873265	179	5837.9770516238
5	886495	180	5842.3546160804
5	899702	181	5847.0027361223
5	913329	182	5847.9966247089
5	927004	183	5849.8644385328
5	940623	184	5852.4639987805
5	954715	185	5858.9257244122
5	968847	186	5866.9099015607
5	983067	187	5876.5438013271
5	997636	188	5887.422021529
5	1012293	189	5897.4218717914
5	1026958	190	5904.2720962557
5	1042064	191	5905.1690018358
5	1057266	192	5908.6593361033
5	1072540	193	5917.668743323
5	1088211	194	5927.6066845908
5	1103946	195	5937.5697730294
5	1119761	196	5947.6672977969
5	1135953	197	5957.8610718246
5	1152169	198	5968.0795593542
5	1168457	199	5978.2906374836
5	1185174	200	5988.1036707544
5	1201939	201	5995.6914487331
5	1218736	202	6001.0502157041
5	1235958	203	6004.4490123818
5	1253212	204	6007.774503773
5	1270522	205	6013.1075197661
5	1288229	206	6019.8433683909
5	1305976	207	6027.9881393769
5	1323803	208	6037.5594870611
5	1342031	209	6047.8840427441
5	1360355	210	6058.0686818452
5	1378683	211	6063.8062398286
5	1397484	212	6068.356156019
5	1416381	213	6072.6135430095
5	1435366	214	6076.8676361635
5	1454676	215	6081.1370594732
5	1474158	216	6085.3965763175
5	1493744	217	6088.9656363861
5	1513719	218	6093.7498877014
5	1533806	219	6097.6088569457
5	1553903	220	6101.5642250246
5	1574471	221	6106.992253011
5	1595095	222	6110.806609786
5	1615887	223	6115.6202175543
5	1637060	224	6119.6386253792
5	1658317	225	6122.1728919999
5	1679690	226	6126.0491699851
5	1701475	227	6131.1519821229
5	1723481	228	6136.1044519008
5	1745511	229	6141.032609412
5	1768010	230	6145.9746628363
5	1790637	231	6150.9161077286
5	1813392	232	6155.8590600321
5	1836644	233	6160.8097196334
5	1859928	234	6165.7516175319
5	1883292	235	6170.6938911424
5	1907213	236	6175.6318825176
5	1931262	237	6180.5797876376
4	11	1	6544.7645515431
4	34	2	6544.7645515431
4	57	3	6542.9476746328
4	80	4	6540.0116517324
4	128	5	6535.934434791
4	176	6	6530.7540564709
4	224	7	6524.4311119153
4	309	8	6516.9571960627
4	394	9	6507.9908269355
4	479	10	6498.6599067468
4	613	11	6488.7740554279
4	747	12	6478.5485587721
4	881	13	6467.9060043297
4	1076	14	6457.0589492501
4	1271	15	6446.2009481844
4	1466	16	6434.8146793013
4	1734	17	6423.4232962404
4	2002	18	6411.9586877573
4	2270	19	6400.3693717154
4	2623	20	6388.7758925496
4	2976	21	6376.7153595439
4	3329	22	6364.6207750597
4	3779	23	6352.5427711299
4	4229	24	6340.4682005185
4	4679	25	6328.643117406
4	5238	26	6316.8291454981
4	5797	27	6305.0128038601
4	6356	28	6293.5813783405
4	7036	29	6283.0902151576
4	7716	30	6272.1142152844
4	8396	31	6263.4756260635
4	9201	32	6254.8459499898
4	10006	33	6246.2128074292
4	10811	34	6237.5962945883
4	11745	35	6229.7503829802
4	12679	36	6221.9088576812
4	13613	37	6214.5817419573
4	14680	38	6207.7790569816
4	15747	39	6200.97248573
4	16814	40	6194.1705908981
4	18018	41	6187.3647454241
4	19222	42	6180.5646306688
4	20426	43	6173.7577658412
4	21771	44	6166.9458972725
4	23116	45	6160.1573004654
4	24461	46	6153.3494626027
4	25951	47	6146.5468140411
4	27433	48	6139.7456961889
4	28923	49	6132.9785305952
4	30562	50	6126.3792315345
4	32201	51	6119.7965762464
4	33840	52	6113.2048773098
4	35632	53	6106.6006164297
4	37424	54	6100.0096794594
4	39224	55	6093.4529310019
4	41173	56	6086.9235573336
4	43130	57	6080.3886976509
4	45095	58	6073.8539345891
4	47213	59	6067.317649828
4	49339	60	6060.7832719876
4	51473	61	6051.5094452973
4	53764	62	6044.6071273713
4	56063	63	6038.1508719531
4	58362	64	6031.7035814263
4	60830	65	6025.2508120125
4	63298	66	6018.7993948273
4	65774	67	6012.3489529454
4	68423	68	6005.9015996144
4	71080	69	5999.4519778116
4	73729	70	5995.9311764832
4	76563	71	5989.4888929581
4	79405	72	5983.0374180164
4	82247	73	5976.5918651244
4	85270	74	5970.1439260187
4	88301	75	5963.6936001002
4	91332	76	5957.2464331027
4	94548	77	5950.7553904699
4	97764	78	5944.195180323
4	100988	79	5937.6208168061
4	104401	80	5931.0488878446
4	107815	81	5922.5959975002
4	111236	82	5919.8744780007
4	114850	83	5918.2191473713
4	118472	84	5917.6300056121
4	122102	85	5917.629731824
4	125929	86	5917.629731824
4	129764	87	5917.629731824
4	133607	88	5917.629731824
4	137659	89	5917.629731824
4	141711	90	5917.629731824
4	145795	91	5917.629731824
4	150084	92	5917.629731824
4	154503	93	5917.629731824
4	158816	94	5917.629731824
4	165214	95	5917.629731824
4	169741	96	5917.629731824
4	177565	97	5917.629731824
4	182356	98	5917.629731824
4	189645	99	5917.629731824
4	194452	100	5917.629731824
4	199847	101	5917.629731824
4	204887	102	5917.629731824
4	210026	103	5917.629731824
4	215319	104	5917.629731824
4	220579	105	5917.629731824
4	225888	106	5917.629731824
4	231403	107	5917.629731824
4	236919	108	5917.629731824
4	242458	109	5917.629731824
4	248269	110	5917.629731824
4	254080	111	5917.629731824
4	259907	112	5917.629731824
4	265983	113	5917.629731824
4	272059	114	5917.629731824
4	278151	115	5917.629731824
4	284496	116	5917.629731824
4	290841	117	5917.629731824
4	297202	118	5917.629731824
4	303820	119	5917.629731824
4	310438	120	5917.629731824
4	317029	121	5917.629731824
4	323892	122	5917.629731824
4	330702	123	5917.629731824
4	337541	124	5917.629731824
4	344609	125	5917.629731824
4	351713	126	5917.629731824
4	358809	127	5917.629731824
4	366166	128	5917.629731824
4	373515	129	5917.629731824
4	380848	130	5917.629731824
4	388455	131	5917.629731824
4	396053	132	5917.3210776485
4	403616	133	5916.0929751762
4	411471	134	5913.8993199968
4	419362	135	5910.8802217473
4	427261	136	5906.993180801
4	435441	137	5902.7652652763
4	443597	138	5900.6370351066
4	451721	139	5901.3029370832
4	460085	140	5905.4446772644
4	468470	141	5912.1900105178
4	476823	142	5921.909242429
4	485481	143	5932.8416914142
4	494163	144	5943.743296295
4	502821	145	5953.453866433
4	511780	146	5960.3479750693
4	520747	147	5963.1884731111
4	529722	148	5961.3957383443
4	539018	149	5958.1085219157
4	548338	150	5948.1681596784
4	557682	151	5936.9847330471
4	567343	152	5925.8273697693
4	577012	153	5913.7597909001
4	586679	154	5901.7200370764
4	596725	155	5889.672001624
4	606766	156	5879.3717582989
4	616852	157	5871.7967599361
4	627263	158	5866.6380778177
4	637661	159	5863.1366681888
4	648128	160	5857.9361248808
4	658872	161	5851.4489973065
4	669632	162	5843.2381510491
4	680415	163	5833.1623886452
4	691532	164	5821.4942981888
4	702664	165	5809.4408826965
4	713865	166	5797.6156162087
4	725419	167	5785.7790095018
4	736981	168	5773.9184045442
4	748575	169	5762.0382912315
4	760518	170	5750.1561033207
4	772485	171	5738.3452083778
4	784500	172	5726.6577781009
4	796860	173	5714.9581252417
4	809236	174	5703.3369125918
4	821660	175	5692.8927318635
4	834441	176	5684.1819459173
4	847238	177	5678.4132790479
4	860083	178	5674.6388086309
4	873265	179	5672.1982406777
4	886495	180	5668.3712545817
4	899702	181	5663.0572882355
4	913329	182	5655.5608572475
4	927004	183	5649.9432645419
4	940623	184	5646.7488523871
4	954715	185	5644.5811656537
4	968847	186	5643.4045658035
4	983067	187	5644.5813833424
4	997636	188	5649.406111841
4	1012293	189	5659.2028523656
4	1026958	190	5671.4480831709
4	1042064	191	5685.9261945362
4	1057266	192	5698.3723861512
4	1072540	193	5708.3816304461
4	1088211	194	5717.4581831634
4	1103946	195	5726.5577033762
4	1119761	196	5735.7862309384
4	1135953	197	5745.1006522524
4	1152169	198	5754.436675999
4	1168457	199	5763.7659302176
4	1185174	200	5772.7315145447
4	1201939	201	5779.6640155815
4	1218736	202	5784.5600019541
4	1235958	203	5787.6647012675
4	1253212	204	5790.4557365715
4	1270522	205	5794.6752966446
4	1288229	206	5800.3075668423
4	1305976	207	5807.4829980855
4	1323803	208	5815.9152237835
4	1342031	209	5821.630992876
4	1360355	210	5818.479737688
4	1378683	211	5812.1888569106
4	1397484	212	5805.0318433709
4	1416381	213	5797.9227301295
4	1435366	214	5790.8191170357
4	1454676	215	5783.6899051853
4	1474158	216	5776.5772354499
4	1493744	217	5769.1136732969
4	1513719	218	5763.7887034958
4	1533806	219	5761.2200599838
4	1553903	220	5758.9215761858
4	1574471	221	5757.8061781945
4	1595095	222	5756.6352788622
4	1615887	223	5753.3497824457
4	1637060	224	5748.7925938906
4	1658317	225	5745.6956726088
4	1679690	226	5741.8593002771
4	1701475	227	5736.7883983194
4	1723481	228	5730.1517781957
4	1745511	229	5723.5477380341
4	1768010	230	5716.9250764775
4	1790637	231	5710.3032303919
4	1813392	232	5703.6793642808
4	1836644	233	5697.0451699071
4	1859928	234	5690.4227167648
4	1883292	235	5683.7997601449
4	1907213	236	5677.1825419889
4	1931262	237	5670.5519340939
vector 557  RSUExampleScenario1.node[79].veinsmobility  posx  ETV
vector 558  RSUExampleScenario1.node[79].veinsmobility  posy  ETV
vector 559  RSUExampleScenario1.node[79].veinsmobility  speed  ETV
vector 560  RSUExampleScenario1.node[79].veinsmobility  acceleration  ETV
vector 561  RSUExampleScenario1.node[79].veinsmobility  co2emission  ETV
vector 564  RSUExampleScenario1.node[80].veinsmobility  posx  ETV
vector 565  RSUExampleScenario1.node[80].veinsmobility  posy  ETV
15	176	6	4.2301091069722
15	224	7	5.4083752898229
15	309	8	6.4569285084612
15	394	9	6.9981297601067
15	479	10	8.3312879690391
15	613	11	2.7979710561013
15	747	12	2.1999068898786
15	881	13	1.862060966402
15	1076	14	1.8170336337383
15	1271	15	2.4643876269913
15	1466	16	1.9825177553303
15	1734	17	1.8692397712926
15	2002	18	2.0163360752151
15	2270	19	1.9501722039104
15	2623	20	2.1245964095562
15	2976	21	2.244926002996
15	3329	22	1.9501086784574
15	3779	23	2.0415516808395
15	4229	24	2.1295288887144
15	4679	25	1.7817726947314
15	5238	26	1.8709502657584
15	5797	27	2.3937319200063
15	6356	28	1.7727028712565
15	7036	29	1.9454872553412
15	7716	30	2.287362462657
15	8396	31	1.8376680508692
15	9201	32	2.0944866561067
15	10006	33	2.0754088382317
15	10811	34	2.0271343513035
15	11745	35	2.2160341601203
15	12679	36	2.0881211592501
15	13613	37	1.8057650899884
15	14680	38	2.0995604528105
15	15747	39	1.8621566990767
15	16814	40	2.3498933602335
15	18018	41	1.6434285755707
15	19222	42	2.2197248355681
15	20426	43	1.9685421322378
15	21771	44	2.175000153573
15	23116	45	1.8322939213928
15	24461	46	2.2181916140166
15	25951	47	2.1366135046502
15	27433	48	1.7788806655023
15	28923	49	2.2791755312259
15	30562	50	2.0709742945921
15	32201	51	1.6424808958018
15	33840	52	2.1127754383527
15	35632	53	2.3053777830836
15	37424	54	1.9070198804146
15	39224	55	1.8137606173055
15	41173	56	2.0007698511372
15	43130	57	2.1328453811841
15	45095	58	1.9179988505408
15	47213	59	2.4353865123733
15	49339	60	1.8551035477432
15	51473	61	1.8035421786953
15	53764	62	2.4132688755354
15	56063	63	1.9647183199517
15	58362	64	1.8274778610306
15	60830	65	1.9706500334982
15	63298	66	2.2323523915213
15	65774	67	2.1568352358402
15	68423	68	2.0619367340314
15	71080	69	1.8653268079346
15	73729	70	2.0336560074319
15	76563	71	1.90141682205
15	79405	72	2.1362922723709
15	82247	73	2.0091873964091
15	85270	74	2.2794918364769
15	88301	75	1.883550686759
15	91332	76	1.994543660576
15	94548	77	2.0517280236522
15	97764	78	1.8158448901283
15	100988	79	2.033719034173
15	104401	80	2.3846655865893
15	107815	81	1.773461678623
15	111236	82	0.973
15	114850	83	0.973
15	118472	84	0.973
15	122102	85	0.973
15	125929	86	0.973
15	129764	87	0.973
15	133607	88	0.973
15	137659	89	0.973
15	141711	90	1.11
15	145795	91	1.11
15	150084	92	1.11
15	154503	93	1.11
15	158816	94	1.11
15	165214	95	1.11
15	169741	96	1.11
15	177565	97	1.11
15	182356	98	1.11
15	189645	99	1.11
15	194452	100	1.11
15	199847	101	1.11
15	204887	102	1.11
15	210026	103	1.11
15	215319	104	1.11
15	220579	105	1.11
15	225888	106	1.11
15	231403	107	1.11
15	236919	108	1.11
15	242458	109	1.11
15	248269	110	1.11
15	254080	111	1.11
15	259907	112	1.11
15	265983	113	1.11
15	272059	114	1.11
15	278151	115	1.11
15	284496	116	1.11
15	290841	117	1.11
15	297202	118	1.11
15	303820	119	1.11
15	310438	120	1.11
15	317029	121	1.11
15	323892	122	1.11
15	330702	123	1.11
15	337541	124	1.11
15	344609	125	1.11
15	351713	126	1.11
15	358809	127	1.11
15	366166	128	1.11
15	373515	129	1.11
15	380848	130	1.11
15	388455	131	1.3750125673743
15	396053	132	2.4296714333096
15	403616	133	3.3397302016446
15	411471	134	4.4962509209182
15	419362	135	5.5519881548586
15	427261	136	5.1275438692234
15	435441	137	2.7417562589058
15	443597	138	2.077625076341
15	451721	139	2.366959827384
15	460085	140	1.694335873886
15	468470	141	1.969780818066
15	476823	142	2.1791451292667
15	485481	143	1.5361334778302
15	494163	144	2.1374782199824
15	502821	145	1.9123665308016
15	511780	146	1.7500009919749
15	520747	147	1.8954920904167
15	529722	148	6.0166806861646
15	539018	149	6.8052268875024
15	548338	150	2.0608647120998
15	557682	151	2.1490259587109
15	567343	152	1.9058327568
15	577012	153	2.1839519433251
15	586679	154	1.9743226311089
15	596725	155	0.973
15	606766	156	0.973
15	616852	157	0.973
15	627263	158	0.973
15	637661	159	1.6249055499232
15	648128	160	0.973
15	658872	161	4.3427711336224
15	669632	162	5.2638668006728
15	680415	163	5.81846544664
15	691532	164	7.4002282368234
15	702664	165	7.437232524859
15	713865	166	4.443561665589
15	725419	167	1.8735841631742
15	736981	168	1.7733987064545
15	748575	169	2.3250644160566
15	760518	170	1.8384404600944
15	772485	171	2.1842114692002
15	784500	172	1.6022042589193
15	796860	173	2.0922905864417
15	809236	174	2.0928530047705
15	821660	175	2.0316339954607
15	834441	176	0.973
15	847238	177	0.973
15	860083	178	0.973
15	873265	179	0.973
15	886495	180	0.973
15	899702	181	1.6064198016131
15	913329	182	3.9671672602539
15	927004	183	1.7377775702156
15	940623	184	2.9465681168395
15	954715	185	0.973
15	968847	186	0.973
15	983067	187	4.894597571059
15	997636	188	5.3743006922975
15	1012293	189	6.5117177766427
15	1026958	190	8.0972467664422
15	1042064	191	6.7394189527515
15	1057266	192	1.7406640245621
15	1072540	193	2.2130741822567
15	1088211	194	1.8274591220596
15	1103946	195	2.0402722494668
15	1119761	196	2.2178065891211
15	1135953	197	2.0213558718812
15	1152169	198	1.8359650672219
15	1168457	199	2.0306204102087
15	1185174	200	2.1155527063948
15	1201939	201	0.973
15	1218736	202	0.973
15	1235958	203	0.973
15	1253212	204	0.973
15	1270522	205	0.973
15	1288229	206	1.5779800873942
15	1305976	207	5.3891181140518
15	1323803	208	6.0332372522443
15	1342031	209	6.903339151344
15	1360355	210	7.7652216897752
15	1378683	211	4.8442719964856
15	1397484	212	0.973
15	1416381	213	0.973
15	1435366	214	1.663994089471
15	1454676	215	1.6304870702146
15	1474158	216	1.5408077649722
15	1493744	217	1.516404380151
15	1513719	218	1.4727027613984
15	1533806	219	1.6414278528381
15	1553903	220	0.973
15	1574471	221	0.973
15	1595095	222	0.973
15	1615887	223	4.2714594394553
15	1637060	224	0.973
15	1658317	225	2.5002050554443
15	1679690	226	5.0164660264226
15	1701475	227	0.973
15	1723481	228	1.6026012655134
15	1745511	229	5.1262834901771
15	1768010	230	4.2261379375485
15	1790637	231	1.6387910841655
15	1813392	232	1.4057029531797
15	1836644	233	1.6881058187191
15	1859928	234	1.444774944895
15	1883292	235	1.6865839901724
15	1907213	236	1.4418890209657
15	1931262	237	1.759825492648
15	1955327	238	1.3316546784157
15	1979608	239	1.7701853703044
15	2004017	240	1.5386950218703
15	2028450	241	1.5817624075894
14	176	6	1.9474421001598
14	224	7	2.0059184591635
14	309	8	1.9846240851143
14	394	9	1.8173657322512
14	479	10	1.9131545290095
14	613	11	0.22784023580519
14	747	12	0.048173203465995
14	881	13	-0.050697381442879
14	1076	14	-0.0624894065666
14	1271	15	0.12612357348902
14	1466	16	-0.016221102369018
14	1734	17	-0.048529931781813
14	2002	18	-0.0045923082134696
14	2270	19	-0.0236226994358
14	2623	20	0.027527671894058
14	2976	21	0.061225076960399
14	3329	22	-0.025453781296964
14	3779	23	0.0016555238934224
14	4229	24	0.026912239429077
14	4679	25	-0.074307391571347
14	5238	26	-0.046478680849541
14	5797	27	0.10579280443024
14	6356	28	-0.076580716550817
14	7036	29	-0.024332785394508
14	7716	30	0.075151022234932
14	8396	31	-0.057034409150948
14	9201	32	0.019019715432078
14	10006	33	0.012927869681734
14	10811	34	-0.0014060863782657
14	11745	35	0.053038598932327
14	12679	36	0.014625610450748
14	13613	37	-0.067346453820356
14	14680	38	0.019533643305767
14	15747	39	-0.049742171096149
14	16814	40	0.092405064585618
14	18018	41	-0.11453826582991
14	19222	42	0.055824018120765
14	20426	43	-0.018432056293822
14	21771	44	0.04172858914826
14	23116	45	-0.0586130354763
14	24461	46	0.05470186558785
14	25951	47	0.029485740689561
14	27433	48	-0.074792632721365
14	28923	49	0.071889407210984
14	30562	50	0.0097951422398914
14	32201	51	-0.11475160704926
14	33840	52	0.025069532906636
14	35632	53	0.079673370635138
14	37424	54	-0.037514398393688
14	39224	55	-0.063627952814567
14	41173	56	-0.0074987104092727
14	43130	57	0.030993990653659
14	45095	58	-0.032221641426439
14	47213	59	0.11794406472472
14	49339	60	-0.052772676777096
14	51473	61	-0.06642730889609
14	53764	62	0.11167254664935
14	56063	63	-0.020842343657279
14	58362	64	-0.060069129103795
14	60830	65	-0.016841466971673
14	63298	66	0.05931155286031
14	65774	67	0.035662026759237
14	68423	68	0.0072685394342979
14	71080	69	-0.049729004553519
14	73729	70	0.00037692350801066
14	76563	71	-0.0379459962924
14	79405	72	0.031155913318507
14	82247	73	-0.0065102592785848
14	85270	74	0.071497709718534
14	88301	75	-0.044681010362693
14	91332	76	-0.011332448953763
14	94548	77	0.0055201992532243
14	97764	78	-0.063043326074258
14	100988	79	0.0020204548933549
14	104401	80	0.10300187459215
14	107815	81	-0.076424598861484
14	111236	82	-1.2356855229082
14	114850	83	-3.2968017615483
14	118472	84	-2.9125061928973
14	122102	85	-2.460076328557
14	125929	86	-1.9213100822854
14	129764	87	-1.1298979825361
14	133607	88	-0.5196082563858
14	137659	89	-0.43412833887655
14	141711	90	-0.00012825448668387
14	145795	91	9.1608163632437e-17
14	150084	92	9.9641233676052e-17
14	154503	93	1.532809663106e-17
14	158816	94	-4.0369831871531e-16
14	165214	95	-3.6768785092997e-18
14	169741	96	1.3502086769686e-16
14	177565	97	2.3714655559436e-16
14	182356	98	-2.1599591125399e-16
14	189645	99	-2.0070581479197e-16
14	194452	100	-4.3802659006552e-17
14	199847	101	4.8354706061768e-16
14	204887	102	-3.3151522946593e-16
14	210026	103	1.7571697013174e-16
14	215319	104	-3.3080076954971e-16
14	220579	105	4.89579747011e-16
14	225888	106	-1.4031153340231e-16
14	231403	107	1.2747870613212e-16
14	236919	108	-4.3081923828233e-16
14	242458	109	2.4496680667965e-16
14	248269	110	1.1299643614989e-16
14	254080	111	4.5548282719573e-17
14	259907	112	-3.9526043562848e-16
14	265983	113	2.9969842265597e-16
14	272059	114	-3.6016879970637e-16
14	278151	115	2.8963599158171e-16
14	284496	116	2.6112720794083e-16
14	290841	117	-1.3498772229719e-16
14	297202	118	-3.3603073406337e-16
14	303820	119	3.921637988745e-17
14	310438	120	-1.0908304843783e-16
14	317029	121	5.3530715511273e-16
14	323892	122	-4.1261951491376e-16
14	330702	123	3.2011111445239e-16
14	337541	124	-4.7446459041228e-16
14	344609	125	2.8733841944686e-16
14	351713	126	2.7988887281933e-16
14	358809	127	-3.0962112364264e-16
14	366166	128	-2.1970890481982e-16
14	373515	129	3.1397191706837e-16
14	380848	130	-2.9797216452589e-16
14	388455	131	0.95316051604008
14	396053	132	1.7918040288486
14	403616	133	1.8190227446059
14	411471	134	1.9429623226252
14	419362	135	1.9514775499528
14	427261	136	1.4454466444664
14	435441	137	0.41516166913383
14	443597	138	0.14170886100744
14	451721	139	0.24317690885174
14	460085	140	-0.01706431393581
14	468470	141	0.086490966444996
14	476823	142	0.1597806773142
14	485481	143	-0.082342404171145
14	494163	144	0.1413767023462
14	502821	145	0.054447564393762
14	511780	146	-0.0063489130155077
14	520747	147	0.046693169316278
14	529722	148	1.3741682794038
14	539018	149	1.4274171314063
14	548338	150	0.0096778319496664
14	557682	151	0.034851061394438
14	567343	152	-0.036560246064328
14	577012	153	0.044969526357018
14	586679	154	-0.016928511851003
14	596725	155	-2.1173379126245
14	606766	156	-2.337776540961
14	616852	157	-2.0644999519925
14	627263	158	-1.4670748522245
14	637661	159	0.13736675972717
14	648128	160	-2.4184562606114
14	658872	161	2.1122517789405
14	669632	162	1.9963206405984
14	680415	163	1.8059480421478
14	691532	164	2.0034379548603
14	702664	165	1.7086581803183
14	713865	166	0.71301183818749
14	725419	167	-0.047602180519606
14	736981	168	-0.075524798387196
14	748575	169	0.086306095537729
14	760518	170	-0.056846677006687
14	772485	171	0.044841881275643
14	784500	172	-0.12563587977318
14	796860	173	0.020824714251795
14	809236	174	0.020344877722673
14	821660	175	0.0019614946772339
14	834441	176	-1.75210476728
14	847238	177	-2.4945805663645
14	860083	178	-1.77623711742
14	873265	179	-0.790556926953
14	886495	180	-2.5239818216135
14	899702	181	0.22462290106853
14	913329	182	1.639103970601
14	927004	183	0.17970239640924
14	940623	184	0.81123059494352
14	954715	185	-2.6415952472048
14	968847	186	-0.35103379194313
14	983067	187	2.1753535683057
14	997636	188	1.870218812204
14	1012293	189	1.9226481625112
14	1026958	190	2.0729336009663
14	1042064	191	1.4135899713868
14	1057266	192	-0.082606172354426
14	1072540	193	0.057829268982168
14	1088211	194	-0.056471834271214
14	1103946	195	0.0074575248849573
14	1119761	196	0.058907393221743
14	1135953	197	-3.4280004911125e-05
14	1152169	198	-0.05422747998964
14	1168457	199	0.0042754126549696
14	1185174	200	0.028911076565274
14	1201939	201	-0.8797113083226
14	1218736	202	-2.6302380484729
14	1235958	203	-1.138878102548
14	1253212	204	-2.1768081641702
14	1270522	205	-2.6091570599411
14	1288229	206	0.21494993497152
14	1305976	207	2.3429849813925
14	1323803	208	2.0447552349209
14	1342031	209	1.9534303037333
14	1360355	210	1.890796242326
14	1378683	211	0.86065577277414
14	1397484	212	-2.7762803820148
14	1416381	213	-2.6593702123011
14	1435366	214	0.050538325186354
14	1454676	215	0.032554433669429
14	1474158	216	-0.01174621904036
14	1493744	217	-0.0232062058663
14	1513719	218	-0.043828380270861
14	1533806	219	0.039509656673763
14	1553903	220	-1.1932991606532
14	1574471	221	-2.5770165688407
14	1595095	222	-1.6456450628016
14	1615887	223	2.316916879192
14	1637060	224	-1.1052928518323
14	1658317	225	0.93846124796825
14	1679690	226	2.0667262044554
14	1701475	227	-2.5849467784228
14	1723481	228	0.22350651812107
14	1745511	229	2.1901152221742
14	1768010	230	1.339394691059
14	1790637	231	0.037927752083634
14	1813392	232	-0.076784177059308
14	1836644	233	0.063155044747981
14	1859928	234	-0.057219042549841
14	1883292	235	0.062187901067082
14	1907213	236	-0.058766080571804
14	1931262	237	0.097115322954487
14	1955327	238	-0.11401531958021
14	1979608	239	0.10279397652485
14	2004017	240	-0.012333018658683
14	2028450	241	0.0088827718351983
13	128	5	4.0425376740037
13	176	6	5.9899797741635
13	224	7	7.995898233327
13	309	8	9.9805223184414
13	394	9	11.797888050693
13	479	10	13.711042579702
13	613	11	13.938882815507
13	747	12	13.987056018973
13	881	13	13.93635863753
13	1076	14	13.873869230964
13	1271	15	13.999992804453
13	1466	16	13.983771702084
13	1734	17	13.935241770302
13	2002	18	13.930649462088
13	2270	19	13.907026762653
13	2623	20	13.934554434547
13	2976	21	13.995779511507
13	3329	22	13.97032573021
13	3779	23	13.971981254104
13	4229	24	13.998893493533
13	4679	25	13.924586101961
13	5238	26	13.878107421112
13	5797	27	13.983900225542
13	6356	28	13.907319508991
13	7036	29	13.882986723597
13	7716	30	13.958137745832
13	8396	31	13.901103336681
13	9201	32	13.920123052113
13	10006	33	13.933050921794
13	10811	34	13.931644835416
13	11745	35	13.984683434349
13	12679	36	13.999309044799
13	13613	37	13.931962590979
13	14680	38	13.951496234285
13	15747	39	13.901754063189
13	16814	40	13.994159127774
13	18018	41	13.879620861944
13	19222	42	13.935444880065
13	20426	43	13.917012823771
13	21771	44	13.958741412919
13	23116	45	13.900128377443
13	24461	46	13.954830243031
13	25951	47	13.984315983721
13	27433	48	13.909523350999
13	28923	49	13.98141275821
13	30562	50	13.99120790045
13	32201	51	13.876456293401
13	33840	52	13.901525826307
13	35632	53	13.981199196943
13	37424	54	13.943684798549
13	39224	55	13.880056845734
13	41173	56	13.872558135325
13	43130	57	13.903552125979
13	45095	58	13.871330484552
13	47213	59	13.989274549277
13	49339	60	13.9365018725
13	51473	61	13.870074563604
13	53764	62	13.981747110253
13	56063	63	13.960904766596
13	58362	64	13.900835637492
13	60830	65	13.88399417052
13	63298	66	13.943305723381
13	65774	67	13.97896775014
13	68423	68	13.986236289574
13	71080	69	13.936507285021
13	73729	70	13.936884208529
13	76563	71	13.898938212236
13	79405	72	13.930094125555
13	82247	73	13.923583866276
13	85270	74	13.995081575995
13	88301	75	13.950400565632
13	91332	76	13.939068116678
13	94548	77	13.944588315932
13	97764	78	13.881544989857
13	100988	79	13.883565444751
13	104401	80	13.986567319343
13	107815	81	13.910142720481
13	111236	82	12.674457197573
13	114850	83	9.3776554360249
13	118472	84	6.4651492431276
13	122102	85	4.0050729145706
13	125929	86	2.0837628322852
13	129764	87	0.95386484974904
13	133607	88	0.43425659336324
13	137659	89	0.00012825448669582
13	141711	90	1.1949755553277e-14
13	145795	91	1.204136371691e-14
13	150084	92	1.2141004950586e-14
13	154503	93	1.2156333047217e-14
13	158816	94	1.1752634728502e-14
13	165214	95	1.1748957849992e-14
13	169741	96	1.1883978717689e-14
13	177565	97	1.2121125273283e-14
13	182356	98	1.1905129362029e-14
13	189645	99	1.1704423547237e-14
13	194452	100	1.1660620888231e-14
13	199847	101	1.2144167948849e-14
13	204887	102	1.1812652719383e-14
13	210026	103	1.1988369689514e-14
13	215319	104	1.1657568919965e-14
13	220579	105	1.2147148666976e-14
13	225888	106	1.2006837133573e-14
13	231403	107	1.2134315839706e-14
13	236919	108	1.1703496601423e-14
13	242458	109	1.1948463408103e-14
13	248269	110	1.2061459844253e-14
13	254080	111	1.2107008126972e-14
13	259907	112	1.1711747691344e-14
13	265983	113	1.2011446114e-14
13	272059	114	1.1651277314293e-14
13	278151	115	1.1940913305875e-14
13	284496	116	1.2202040513816e-14
13	290841	117	1.2067052791519e-14
13	297202	118	1.1731022057455e-14
13	303820	119	1.1770238437343e-14
13	310438	120	1.1661155388905e-14
13	317029	121	1.2196462544018e-14
13	323892	122	1.1783843029104e-14
13	330702	123	1.2103954143556e-14
13	337541	124	1.1629489553144e-14
13	344609	125	1.1916827972591e-14
13	351713	126	1.219671684541e-14
13	358809	127	1.1887095721768e-14
13	366166	128	1.1667386816948e-14
13	373515	129	1.1981358734016e-14
13	380848	130	1.168338656949e-14
13	388455	131	0.95316051604009
13	396053	132	2.7449645448887
13	403616	133	4.5639872894946
13	411471	134	6.5069496121198
13	419362	135	8.4584271620726
13	427261	136	9.903873806539
13	435441	137	10.319035475673
13	443597	138	10.46074433668
13	451721	139	10.703921245532
13	460085	140	10.686856931596
13	468470	141	10.773347898041
13	476823	142	10.933128575355
13	485481	143	10.850786171184
13	494163	144	10.99216287353
13	502821	145	11.046610437924
13	511780	146	11.040261524909
13	520747	147	11.086954694225
13	529722	148	12.461122973629
13	539018	149	13.888540105035
13	548338	150	13.898217936985
13	557682	151	13.933068998379
13	567343	152	13.896508752315
13	577012	153	13.941478278672
13	586679	154	13.924549766821
13	596725	155	11.807211854196
13	606766	156	9.4694353132353
13	616852	157	7.4049353612428
13	627263	158	5.9378605090183
13	637661	159	6.0752272687455
13	648128	160	3.6567710081341
13	658872	161	5.7690227870745
13	669632	162	7.765343427673
13	680415	163	9.5712914698208
13	691532	164	11.574729424681
13	702664	165	13.283387604999
13	713865	166	13.996399443187
13	725419	167	13.948797262667
13	736981	168	13.87327246428
13	748575	169	13.959578559818
13	760518	170	13.902731882811
13	772485	171	13.947573764087
13	784500	172	13.821937884314
13	796860	173	13.842762598565
13	809236	174	13.863107476288
[...]
560	2470555	258	-0.022040308287831
560	2498259	259	0.029564127654302
560	2526552	260	-0.062832775774877
560	2554893	261	-0.013531953257043
560	2583306	262	0.076505242395216
560	2612192	263	-0.054419360179455
560	2641262	264	-0.028975623827426
560	2670412	265	0.096533508957362
560	2700087	266	0.017062916650904
561	2004017	240	4.1460319830108
561	2028450	241	5.491148856252
561	2053452	242	5.9583972163302
561	2078151	243	7.6281832046933
561	2102901	244	8.7876228462768
561	2128311	245	2.351972004389
561	2153745	246	2.1432834853676
561	2178954	247	2.0908294166705
561	2204684	248	1.7209464515896
561	2230430	249	2.401980480417
561	2256288	250	1.970092497354
561	2282362	251	2.1088310106982
561	2308500	252	2.0439201344913
561	2334758	253	2.0353123545776
561	2361533	254	1.8582849788432
561	2388412	255	1.9374497911658
561	2415395	256	2.2859787003372
561	2442939	257	1.9578125253323
561	2470555	258	1.9581636447375
561	2498259	259	2.1346978284434
561	2526552	260	1.8182832672654
561	2554893	261	1.9821220974781
561	2583306	262	2.292691443019
561	2612192	263	1.8472294246671
561	2641262	264	1.9297795082214
561	2670412	265	2.3617458780514
561	2700087	266	2.0958577807501
564	2028450	241	6544.7381098157
564	2053452	242	6544.7381098157
564	2078151	243	6542.8782245683
564	2102901	244	6539.9206763708
564	2128311	245	6535.807771151
564	2153745	246	6530.5714808835
564	2178954	247	6524.1618209114
564	2204684	248	6516.5276992876
564	2230430	249	6507.4663123431
564	2256288	250	6498.139270391
564	2282362	251	6488.2125830905
564	2308500	252	6477.9756861357
564	2334758	253	6467.3118201334
564	2361533	254	6456.4682450302
564	2388412	255	6445.5873278112
564	2415395	256	6434.1991189863
564	2442939	257	6422.8070212656
564	2470555	258	6411.3030480417
564	2498259	259	6399.7466390619
564	2526552	260	6388.1732324708
564	2554893	261	6376.0930419293
564	2583306	262	6364.0012133519
564	2612192	263	6351.9030029327
564	2641262	264	6339.8410712951
564	2670412	265	6328.0192672797
564	2700087	266	6316.184904162
565	2028450	241	6531.0986586177
565	2053452	242	6531.0986586177
565	2078151	243	6528.5658299531
565	2102901	244	6524.5381820851
565	2128311	245	6518.9371460802
565	2153745	246	6511.8062620085
565	2178954	247	6503.0774597717
565	2204684	248	6492.6811613416
565	2230430	249	6482.040714369
565	2256288	250	6471.6284348279
565	2282362	251	6461.80334737
565	2308500	252	6452.3047131399
565	2334758	253	6443.3107440873
565	2361533	254	6434.5109841868
565	2388412	255	6425.7420097888
565	2415395	256	6417.6546249871
565	2442939	257	6409.5644784695
565	2470555	258	6401.5601987534
565	2498259	259	6393.8718082214
565	2526552	260	6386.1721093087
565	2554893	261	6379.2866541717
565	2583306	262	6372.3977448938
565	2612192	263	6365.5051997781
565	2641262	264	6358.5943668998
565	2670412	265	6351.244370541
565	2700087	266	6343.8865657838
566	2053452	242	3.9472157779073
566	2078151	243	5.7952557894535
566	2102901	244	7.8302463102963
566	2128311	245	9.7049464488535
566	2153745	246	11.786592355579
566	2178954	247	13.697294848868
566	2204684	248	13.917018540516
566	2230430	249	13.978126654814
566	2256288	250	13.875027795155
566	2282362	251	13.961327679672
566	2308500	252	13.891579897085
566	2334758	253	13.939663330948
566	2361533	254	13.980052271669
566	2388412	255	13.912989916049
566	2415395	256	13.956783661211
566	2442939	257	13.944703685681
566	2470555	258	13.891319350402
566	2498259	259	13.998384678436
566	2526552	260	13.874129342604
566	2554893	261	13.97596869468
566	2583306	262	13.876690630491
566	2612192	263	13.919492334891
566	2641262	264	13.912704042238
566	2670412	265	13.988512405928
566	2700087	266	13.99188309266
567	2078151	243	1.8480400115461
567	2102901	244	2.0349905208428
567	2128311	245	1.8747001385572
567	2153745	246	2.0816459067259
567	2178954	247	1.9107024932885
567	2204684	248	0.21972369164759
567	2230430	249	0.061108114297967
567	2256288	250	-0.10309885965893
567	2282362	251	0.086299884517212
567	2308500	252	-0.069747782587074
567	2334758	253	0.048083433862775
567	2361533	254	0.040388940721751
567	2388412	255	-0.067062355619855
567	2415395	256	0.043793745161965
567	2442939	257	-0.012079975530504
567	2470555	258	-0.053384335278535
567	2498259	259	0.10706532803364
567	2526552	260	-0.12425533583155
567	2554893	261	0.10183935207548
567	2583306	262	-0.099278064188548
567	2612192	263	0.042801704399754
567	2641262	264	-0.0067882926529279
567	2670412	265	0.075808363689577
567	2700087	266	0.0033706867322323
568	2078151	243	3.9886205366261
568	2102901	244	5.3722905884085
568	2128311	245	6.0473287075858
568	2153745	246	7.7429082051088
568	2178954	247	8.3154762869699
568	2204684	248	2.7673174177464
568	2230430	249	2.2424628461148
568	2256288	250	1.681340676089
568	2282362	251	2.3252587508438
568	2308500	252	1.7942671418457
568	2334758	253	2.1942080140924
568	2361533	254	2.1728814952395
568	2388412	255	1.8050911830794
568	2415395	256	2.1817266488388
568	2442939	257	1.9925915173154
568	2470555	258	1.8490266979057
568	2498259	259	2.3998787284887
568	2526552	260	1.6105315535529
568	2554893	261	2.3794014314666
568	2583306	262	1.6942461227564
568	2612192	263	2.1741984751914
568	2641262	264	2.0071633003178
568	2670412	265	2.2932375478049
568	2700087	266	2.0493815455522
571	2102901	244	6544.7444399855
571	2128311	245	6544.7444399855
571	2153745	246	6542.9004478942
571	2178954	247	6539.875779903
571	2204684	248	6535.678252438
571	2230430	249	6530.3237489544
571	2256288	250	6523.8157135339
571	2282362	251	6516.1857874718
571	2308500	252	6507.0977148576
571	2334758	253	6497.7795257398
571	2361533	254	6487.8201684318
571	2388412	255	6477.5745369973
571	2415395	256	6466.8789439854
571	2442939	257	6456.027846976
571	2470555	258	6445.1310449658
571	2498259	259	6433.7392567838
571	2526552	260	6422.3414485036
571	2554893	261	6410.8465149539
571	2583306	262	6399.2584213227
571	2612192	263	6387.6669427272
571	2641262	264	6375.579694419
571	2670412	265	6363.486160453
571	2700087	266	6351.4050229453
572	2102901	244	6531.1072791687
572	2128311	245	6531.1072791687
572	2153745	246	6528.5960941196
572	2178954	247	6524.4770411836
572	2204684	248	6518.7607649247
572	2230430	249	6511.4688957479
572	2256288	250	6502.6061238719
572	2282362	251	6492.2155390409
572	2308500	252	6481.6292291333
572	2334758	253	6471.2268324881
572	2361533	254	6461.43078248
572	2388412	255	6451.9356710417
572	2415395	256	6442.959457161
572	2442939	257	6434.1535930957
572	2470555	258	6425.4179785908
572	2498259	259	6417.3280518934
572	2526552	260	6409.2338499978
572	2554893	261	6401.2564707808
572	2583306	262	6393.5470006926
572	2612192	263	6385.880491661
572	2641262	264	6378.9941918362
572	2670412	265	6372.104310971
572	2700087	266	6365.2214925675
573	2128311	245	4.004043961085
573	2153745	246	5.9986497526933
573	2178954	247	7.9351266616597
573	2204684	248	9.8600185772395
573	2230430	249	11.798939217028
573	2256288	250	13.7271234374
573	2282362	251	13.979975116097
573	2308500	252	13.911752125956
573	2334758	253	13.872552180917
573	2361533	254	13.893706003556
573	2388412	255	13.973278518727
573	2415395	256	13.908861025437
573	2442939	257	13.974154260391
573	2470555	258	13.885506000249
573	2498259	259	13.994548342747
573	2526552	260	13.885321685511
573	2554893	261	13.916753164909
573	2583306	262	13.922313552387
573	2612192	263	13.93126810865
573	2641262	264	13.936933095378
573	2670412	265	13.975655400679
573	2700087	266	13.962664704833
574	2153745	246	1.9946057916083
574	2178954	247	1.9364769089664
574	2204684	248	1.9248919155798
574	2230430	249	1.9389206397883
574	2256288	250	1.9281842203718
574	2282362	251	0.25285167869735
574	2308500	252	-0.068222990140784
574	2334758	253	-0.039199945039583
574	2361533	254	0.021153822639027
574	2388412	255	0.079572515171021
574	2415395	256	-0.064417493289803
574	2442939	257	0.065293234954588
574	2470555	258	-0.088648260142653
574	2498259	259	0.10904234249843
574	2526552	260	-0.109226657236
574	2554893	261	0.031431479398162
574	2583306	262	0.005560387477745
574	2612192	263	0.0089545562630509
574	2641262	264	0.0056649867282257
574	2670412	265	0.03872230530018
574	2700087	266	-0.012990695845803
575	2153745	246	4.3028661446643
575	2178954	247	5.2421988419441
575	2204684	248	6.248253110307
575	2230430	249	7.3443281863396
575	2256288	250	8.3900386820882
575	2282362	251	2.8886967765929
575	2308500	252	1.8010937842757
575	2334758	253	1.8947829924653
575	2361533	254	2.0988210931053
575	2388412	255	2.3040751217811
575	2415395	256	1.8136029775961
575	2442939	257	2.2560922040731
575	2470555	258	1.7305028507733
575	2498259	259	2.4060542450672
575	2526552	260	1.6616252717546
575	2554893	261	2.1357560052299
575	2583306	262	2.0495602353586
575	2612192	263	2.0618812328006
575	2641262	264	2.0514225531448
575	2670412	265	2.1667750648555
575	2700087	266	1.9913102678192
578	2178954	247	6544.7516151733
578	2204684	248	6544.7516151733
578	2230430	249	6542.9623213375
578	2256288	250	6540.0041577271
578	2282362	251	6535.9187692378
578	2308500	252	6530.7481003539
578	2334758	253	6524.4638538119
578	2361533	254	6517.1179689591
578	2388412	255	6508.2170126554
578	2415395	256	6498.8857683582
578	2442939	257	6489.0094902815
578	2470555	258	6478.7857711106
578	2498259	259	6468.1579211234
578	2526552	260	6457.3090489657
578	2554893	261	6446.4565910465
578	2583306	262	6435.0662541925
578	2612192	263	6423.6705395183
578	2641262	264	6412.1987186022
578	2670412	265	6400.6346095589
578	2700087	266	6389.0510055829
579	2178954	247	6531.117050482
579	2204684	248	6531.117050482
579	2230430	249	6528.6803546035
579	2256288	250	6524.6518686538
579	2282362	251	6519.0883054791
579	2308500	252	6512.0467859108
579	2334758	253	6503.4887741736
579	2361533	254	6493.4850023021
579	2388412	255	6482.8787615809
579	2415395	256	6472.4617907355
579	2442939	257	6462.5599440805
579	2470555	258	6453.0499608052
579	2498259	259	6443.9973705452
579	2526552	260	6435.1933119878
579	2554893	261	6426.3863435194
579	2583306	262	6418.2704247318
579	2612192	263	6410.1777096194
579	2641262	264	6402.1560815288
579	2670412	265	6394.4625682036
579	2700087	266	6386.7560850486
580	2204684	248	3.856550670634
580	2230430	249	5.8318671371974
580	2256288	250	7.7275413626572
580	2282362	251	9.6244954537949
580	2308500	252	11.423212894429
580	2334758	253	13.152178622149
580	2361533	254	13.981756389418
580	2388412	255	13.979343831684
580	2415395	256	13.877288617126
580	2442939	257	13.912689463301
580	2470555	258	13.882161591847
580	2498259	259	13.904095845055
580	2526552	260	13.937671069743
580	2554893	261	13.951964239241
580	2583306	262	13.879162759795
580	2612192	263	13.872646598804
580	2641262	264	13.902208823087
580	2670412	265	13.983750530235
580	2700087	266	13.942017830815
581	2230430	249	1.9753164665634
581	2256288	250	1.8956742254598
581	2282362	251	1.8969540911377
581	2308500	252	1.7987174406345
581	2334758	253	1.7289657277195
581	2361533	254	0.82957776726926
581	2388412	255	-0.0024125577346421
581	2415395	256	-0.10205521455733
581	2442939	257	0.035400846174452
581	2470555	258	-0.030527871453669
581	2498259	259	0.021934253207874
581	2526552	260	0.03357522468781
581	2554893	261	0.014293169497979
581	2583306	262	-0.07280147944577
581	2612192	263	-0.0065161609905768
581	2641262	264	0.029562224282417
581	2670412	265	0.081541707147844
581	2700087	266	-0.041732699419372
582	2230430	249	4.1859199754862
582	2256288	250	5.0557899051125
582	2282362	251	6.0566352877693
582	2308500	252	6.750615795266
582	2334758	253	7.4348882338122
582	2361533	254	4.8323258688143
582	2388412	255	2.02860287017
582	2415395	256	1.6850046003613
582	2442939	257	2.1486202561387
582	2470555	258	1.9246819325179
582	2498259	259	2.1025466439747
582	2526552	260	2.1452487837799
582	2554893	261	2.081989787354
582	2583306	262	1.7829991333496
582	2612192	263	2.0040636420832
582	2641262	264	2.1279015523146
582	2670412	265	2.3119845376042
582	2700087	266	1.8926911245955
585	2256288	250	6544.7356622204
585	2282362	251	6544.7356622204
585	2308500	252	6542.8671385022
585	2334758	253	6539.8725171869
585	2361533	254	6535.7685472068
585	2388412	255	6530.3990741699
585	2415395	256	6523.7453308156
585	2442939	257	6515.933885094
585	2470555	258	6506.8134735003
585	2498259	259	6497.4759148265
585	2526552	260	6487.4972239428
585	2554893	261	6477.263417576
585	2583306	262	6466.5429889352
585	2612192	263	6455.6744208632
585	2641262	264	6444.7581082948
585	2670412	265	6433.3512525955
585	2700087	266	6421.9629215166
586	2256288	250	6531.0953254338
586	2282362	251	6531.0953254338
586	2308500	252	6528.5507327281
586	2334758	253	6524.472597952
586	2361533	254	6518.883730134
586	2388412	255	6511.5714751222
586	2415395	256	6502.5102752884
586	2442939	257	6491.8724933804
586	2470555	258	6481.3119151891
586	2498259	259	6470.8878952647
586	2526552	260	6461.1241737045
586	2554893	261	6451.6494528925
586	2583306	262	6442.6868234814
586	2612192	263	6433.8667813288
586	2641262	264	6425.153136032
586	2670412	265	6417.0525090732
586	2700087	266	6408.9650374523
587	2282362	251	3.9923880141653
587	2308500	252	5.7848328001617
587	2334758	253	7.8944423342409
587	2361533	254	10.009635934108
587	2388412	255	12.179368260066
587	2415395	256	13.920284453351
587	2442939	257	13.992271157298
587	2470555	258	13.953160304131
587	2498259	259	13.870137236037
587	2526552	260	13.910757328174
587	2554893	261	13.884838538361
587	2583306	262	13.978982397937
587	2612192	263	13.908163246259
587	2641262	264	13.986593514618
587	2670412	265	13.898500717257
587	2700087	266	13.934316653807
588	2308500	252	1.7924447859963
588	2334758	253	2.1096095340792
588	2361533	254	2.1151935998676
588	2388412	255	2.1697323259572
588	2415395	256	1.7409161932854
588	2442939	257	0.071986703947186
588	2470555	258	-0.039110853166786
588	2498259	259	-0.083023068094626
588	2526552	260	0.040620092137251
588	2554893	261	-0.025918789813295
588	2583306	262	0.094143859576434
588	2612192	263	-0.070819151678588
588	2641262	264	0.078430268359371
588	2670412	265	-0.088092797361314
588	2700087	266	0.035815936550497
589	2308500	252	3.905870936944
589	2334758	253	5.5499382168063
589	2361533	254	6.7880396273334
589	2388412	255	8.2330876634452
589	2415395	256	7.8711024431855
589	2442939	257	2.2808042707597
589	2470555	258	1.902533806526
589	2498259	259	1.7480728448174
589	2526552	260	2.1659044168938
589	2554893	261	1.9403574934795
589	2583306	262	2.3538583408873
589	2612192	263	1.7920852310331
589	2641262	264	2.3018437111961
589	2670412	265	1.7334076470746
589	2700087	266	2.1524039705881
592	2334758	253	6544.768985093
592	2361533	254	6544.768985093
592	2388412	255	6542.9105619975
592	2415395	256	6539.8770108808
592	2442939	257	6535.7511180869
592	2470555	258	6530.5641411918
592	2498259	259	6524.2546109697
592	2526552	260	6516.8120696185
592	2554893	261	6507.8285111357
592	2583306	262	6498.5205377234
592	2612192	263	6488.6213997486
592	2641262	264	6478.3741766729
592	2670412	265	6467.7060838238
592	2700087	266	6456.856538956
593	2334758	253	6531.1407051835
593	2361533	254	6531.1407051835
593	2388412	255	6528.6098677064
593	2415395	256	6524.4787175536
593	2442939	257	6518.8599948125
593	2470555	258	6511.7962666706
593	2498259	259	6503.2038231158
593	2526552	260	6493.0684225053
593	2554893	261	6482.4450563993
593	2583306	262	6472.0540640966
593	2612192	263	6462.1914845862
593	2641262	264	6452.671309425
593	2670412	265	6443.6306962968
593	2700087	266	6434.826091823
594	2361533	254	4.0484365811267
594	2388412	255	5.9908799427606
594	2415395	256	7.7111939433355
594	2442939	257	9.4984203897741
594	2470555	258	11.473337512365
594	2498259	259	13.327810419949
594	2526552	260	13.902096825312
594	2554893	261	13.907544640347
594	2583306	262	13.889383993612
594	2612192	263	13.990128930917
594	2641262	264	13.968748086777
594	2670412	265	13.931915258178
594	2700087	266	13.964399115657
595	2388412	255	1.9424433616339
595	2415395	256	1.7203140005749
595	2442939	257	1.7872264464386
595	2470555	258	1.9749171225913
595	2498259	259	1.8544729075837
595	2526552	260	0.57428640536286
595	2554893	261	0.0054478150350032
595	2583306	262	-0.018160646734758
595	2612192	263	0.10074493730441
595	2641262	264	-0.021380844139495
595	2670412	265	-0.036832828598563
595	2700087	266	0.032483857478947
596	2388412	255	4.2233667736956
596	2415395	256	4.7213738544347
596	2442939	257	5.7385422167802
596	2470555	258	7.2637882394856
596	2498259	259	7.928205005624
596	2526552	260	3.9529361551128
596	2554893	261	2.0476581712803
596	2583306	262	1.9667604658407
596	2612192	263	2.3775094134136
596	2641262	264	1.9636683414181
596	2670412	265	1.9082133198017
596	2700087	266	2.1445232064333
599	2415395	256	6544.739565269
599	2442939	257	6544.739565269
599	2470555	258	6542.7766870972
599	2498259	259	6539.6013554969
599	2526552	260	6535.1607299486
599	2554893	261	6529.4782927303
599	2583306	262	6522.6665407205
599	2612192	263	6514.6925314843
599	2641262	264	6505.4060096631
599	2670412	265	6496.0789668254
599	2700087	266	6485.9685304796
600	2415395	256	6531.100640683
600	2442939	257	6531.100640683
600	2470555	258	6528.4275542086
600	2498259	259	6524.1033245777
600	2526552	260	6518.0559925215
600	2554893	261	6510.3175366724
600	2583306	262	6501.0411575137
600	2612192	263	6490.1819933831
600	2641262	264	6479.740687463
600	2670412	265	6469.3284069332
600	2700087	266	6459.672807148
601	2442939	257	4.2120011149272
601	2470555	258	6.3177905180091
601	2498259	259	8.3952641555615
601	2526552	260	10.477608621804
601	2554893	261	12.368971133369
601	2583306	262	13.907392155814
601	2612192	263	13.953374270021
601	2641262	264	13.89053131918
601	2670412	265	13.933332066718
601	2700087	266	13.977484447078
602	2470555	258	2.1057894030819
602	2498259	259	2.0774736375525
602	2526552	260	2.0823444662429
602	2554893	261	1.8913625115645
602	2583306	262	1.5384210224455
602	2612192	263	0.045982114206998
602	2641262	264	-0.062842950841876
602	2670412	265	0.042800747537985
602	2700087	266	0.044152380360757
603	2470555	258	4.6443141712826
603	2498259	259	5.7729148496459
603	2526552	260	6.9798329158618
603	2554893	261	7.5194962468314
603	2583306	262	7.1856803954936
603	2612192	263	2.1887011555474
603	2641262	264	1.8172928491213
603	2670412	265	2.1757495258455
603	2700087	266	2.1852709944772
606	2498259	259	6544.7506724699
606	2526552	260	6544.7506724699
606	2554893	261	6542.927725316
606	2583306	262	6539.8964033295
606	2612192	263	6535.7330593712
606	2641262	264	6530.4336609748
606	2670412	265	6523.9381949631
606	2700087	266	6516.2855165647
607	2498259	259	6531.1157666898
607	2526552	260	6531.1157666898
607	2554893	261	6528.6332410544
607	2583306	262	6524.5051265753
607	2612192	263	6518.8354020947
607	2641262	264	6511.61857612
607	2670412	265	6502.7729215145
607	2700087	266	6492.3513521
608	2526552	260	3.9831954863297
608	2554893	261	6.0439875731713
608	2583306	262	7.8357674486588
608	2612192	263	9.8615247998691
608	2641262	264	11.75194245637
608	2670412	265	13.798253346486
608	2700087	266	13.953986042663
609	2554893	261	2.0607920868415
609	2583306	262	1.7917798754876
609	2612192	263	2.0257573512103
609	2641262	264	1.8904176565004
609	2670412	265	2.0463108901167
609	2700087	266	0.15573269617723
610	2554893	261	4.4237097093958
610	2583306	262	4.9160747204267
610	2612192	263	6.4887846600409
610	2641262	264	7.1809233974177
610	2670412	265	8.8230732934022
610	2700087	266	2.5578518575963
613	2583306	262	6544.7525858808
613	2612192	263	6544.7525858808
613	2641262	264	6542.9255918533
613	2670412	265	6539.8270158252
613	2700087	266	6535.5338756552
614	2583306	262	6531.1183724107
614	2612192	263	6531.1183724107
614	2641262	264	6528.6303356625
614	2670412	265	6524.410633294
614	2700087	266	6518.5641497549
615	2612192	263	3.9909664348599
615	2641262	264	6.1827921867224
615	2670412	265	8.0725258767784
615	2700087	266	10.137195647039
616	2641262	264	2.1918257518625
616	2670412	265	1.889733690056
616	2700087	266	2.0646697702608
617	2641262	264	4.6960279151223
617	2670412	265	5.224451416273
617	2700087	266	6.7393724943291
620	2670412	265	6544.7368239079
620	2700087	266	6544.7368239079
621	2670412	265	6531.0969074429
621	2700087	266	6531.0969074429
622	2700087	266	4.2560681830887
