version 2
run WithoutChannelSwitching-0-20180408-18:16:44-4079
attr configname WithoutChannelSwitching
attr datetime 20180408-18:16:44
attr experiment WithoutChannelSwitching
attr inifile omnetpp.ini
attr iterationvars $margin=25
attr iterationvars2 "$margin=25, $repetition=0"
attr margin 25
attr measurement $margin=25
attr network RSUExampleScenario2
attr processid 4079
attr repetition 0
attr replication #0
attr resultdir results
attr runnumber 0
attr seedset 0
param **.coreDebug false
param **.debug false
param *.**.nic.mac1609_4.bitrate 6Mbps
param *.**.nic.mac1609_4.txPower 20mW
param *.**.nic.mac1609_4.useServiceChannel false
param *.**.nic.phy80211p.analogueModels "xmldoc(\"config.xml\")"
param *.**.nic.phy80211p.antenna "xmldoc(\"antenna.xml\", \"/root/Antenna[@id='monopole']\")"
param *.**.nic.phy80211p.decider "xmldoc(\"config.xml\")"
param *.**.nic.phy80211p.sensitivity -89dBm
param *.**.nic.phy80211p.thermalNoise -110dBm
param *.**.nic.phy80211p.usePropagationDelay true
param *.**.nic.phy80211p.useThermalNoise true
param *.annotations.draw true
param *.connectionManager.drawMaxIntfDist false
param *.connectionManager.maxInterfDist 2600m
param *.connectionManager.sendDirect true
param *.manager.autoShutdown true
param *.manager.host "\"localhost\""
param *.manager.launchConfig "xmldoc(\"Coruna.launchd.xml\")"
param *.manager.margin ${margin=25}
param *.manager.port 9999
param *.manager.updateInterval 1s
param *.node[*].appl.beaconInterval 1s
param *.node[*].appl.dataOnSch false
param *.node[*].appl.headerLength "80 bit"
param *.node[*].appl.sendBeacons true
param *.node[*].applType "\"TraCI11p\""
param *.node[*].veinsmobility.x 0
param *.node[*].veinsmobility.y 0
param *.node[*].veinsmobility.z 1.895
param *.node[*].veinsmobilityType.debug true
param *.node[0].veinsmobility.accidentCount 1
param *.node[0].veinsmobility.accidentDuration 50s
param *.node[0].veinsmobility.accidentStart 80s
param *.playgroundSizeX 9999m
param *.playgroundSizeY 9999m
param *.playgroundSizeZ 50m
param *.rsu[*].appl.beaconInterval 1s
param *.rsu[*].appl.beaconPriority 3
param *.rsu[*].appl.dataOnSch false
param *.rsu[*].appl.dataPriority 2
param *.rsu[*].appl.headerLength "80 bit"
param *.rsu[*].appl.sendBeacons true
param *.rsu[*].applType "\"TraCIRSU11p\""
param *.rsu[0].mobility.x "6074.3 + ${margin}"
param *.rsu[0].mobility.y "6001.1 + ${margin}"
param *.rsu[0].mobility.z 3

vector 4  RSUExampleScenario2.node[0].veinsmobility  posx  ETV
vector 5  RSUExampleScenario2.node[0].veinsmobility  posy  ETV
vector 6  RSUExampleScenario2.node[0].veinsmobility  speed  ETV
vector 7  RSUExampleScenario2.node[0].veinsmobility  acceleration  ETV
vector 8  RSUExampleScenario2.node[0].veinsmobility  co2emission  ETV
vector 11  RSUExampleScenario2.node[1].veinsmobility  posx  ETV
vector 12  RSUExampleScenario2.node[1].veinsmobility  posy  ETV
vector 13  RSUExampleScenario2.node[1].veinsmobility  speed  ETV
vector 14  RSUExampleScenario2.node[1].veinsmobility  acceleration  ETV
vector 15  RSUExampleScenario2.node[1].veinsmobility  co2emission  ETV
vector 18  RSUExampleScenario2.node[2].veinsmobility  posx  ETV
vector 19  RSUExampleScenario2.node[2].veinsmobility  posy  ETV
vector 20  RSUExampleScenario2.node[2].veinsmobility  speed  ETV
vector 21  RSUExampleScenario2.node[2].veinsmobility  acceleration  ETV
vector 22  RSUExampleScenario2.node[2].veinsmobility  co2emission  ETV
vector 25  RSUExampleScenario2.node[3].veinsmobility  posx  ETV
vector 26  RSUExampleScenario2.node[3].veinsmobility  posy  ETV
vector 27  RSUExampleScenario2.node[3].veinsmobility  speed  ETV
vector 28  RSUExampleScenario2.node[3].veinsmobility  acceleration  ETV
vector 29  RSUExampleScenario2.node[3].veinsmobility  co2emission  ETV
vector 32  RSUExampleScenario2.node[4].veinsmobility  posx  ETV
vector 33  RSUExampleScenario2.node[4].veinsmobility  posy  ETV
vector 34  RSUExampleScenario2.node[4].veinsmobility  speed  ETV
vector 35  RSUExampleScenario2.node[4].veinsmobility  acceleration  ETV
vector 36  RSUExampleScenario2.node[4].veinsmobility  co2emission  ETV
vector 39  RSUExampleScenario2.node[5].veinsmobility  posx  ETV
vector 40  RSUExampleScenario2.node[5].veinsmobility  posy  ETV
vector 41  RSUExampleScenario2.node[5].veinsmobility  speed  ETV
vector 42  RSUExampleScenario2.node[5].veinsmobility  acceleration  ETV
vector 43  RSUExampleScenario2.node[5].veinsmobility  co2emission  ETV
vector 46  RSUExampleScenario2.node[6].veinsmobility  posx  ETV
vector 47  RSUExampleScenario2.node[6].veinsmobility  posy  ETV
vector 48  RSUExampleScenario2.node[6].veinsmobility  speed  ETV
vector 49  RSUExampleScenario2.node[6].veinsmobility  acceleration  ETV
vector 50  RSUExampleScenario2.node[6].veinsmobility  co2emission  ETV
vector 53  RSUExampleScenario2.node[7].veinsmobility  posx  ETV
vector 54  RSUExampleScenario2.node[7].veinsmobility  posy  ETV
vector 55  RSUExampleScenario2.node[7].veinsmobility  speed  ETV
vector 56  RSUExampleScenario2.node[7].veinsmobility  acceleration  ETV
vector 57  RSUExampleScenario2.node[7].veinsmobility  co2emission  ETV
vector 60  RSUExampleScenario2.node[8].veinsmobility  posx  ETV
vector 61  RSUExampleScenario2.node[8].veinsmobility  posy  ETV
vector 62  RSUExampleScenario2.node[8].veinsmobility  speed  ETV
vector 63  RSUExampleScenario2.node[8].veinsmobility  acceleration  ETV
vector 64  RSUExampleScenario2.node[8].veinsmobility  co2emission  ETV
vector 67  RSUExampleScenario2.node[9].veinsmobility  posx  ETV
vector 68  RSUExampleScenario2.node[9].veinsmobility  posy  ETV
vector 69  RSUExampleScenario2.node[9].veinsmobility  speed  ETV
vector 70  RSUExampleScenario2.node[9].veinsmobility  acceleration  ETV
vector 71  RSUExampleScenario2.node[9].veinsmobility  co2emission  ETV
4	11	1	6544.7645515431
4	34	2	6544.7645515431
4	57	3	6542.9476746328
4	80	4	6540.0116517324
4	128	5	6535.934434791
4	176	6	6530.7540564709
4	224	7	6524.4311119153
4	309	8	6516.9571960627
4	394	9	6507.9908269355
4	479	10	6498.6599067468
4	613	11	6488.7740554279
4	747	12	6478.5485587721
4	881	13	6467.9060043297
4	1076	14	6457.0589492501
4	1271	15	6446.2009481844
4	1466	16	6434.8146793013
4	1734	17	6423.4232962404
4	2002	18	6411.9586877573
4	2270	19	6400.3693717154
4	2623	20	6388.7758925496
4	2976	21	6376.7153595439
4	3329	22	6364.6207750597
4	3779	23	6352.5427711299
4	4229	24	6340.4682005185
4	4679	25	6328.643117406
4	5238	26	6316.8291454981
4	5797	27	6305.0128038601
4	6356	28	6293.5813783405
4	7036	29	6283.0902151576
4	7756	30	6272.1142152844
4	8444	31	6263.4756260635
4	9201	32	6254.8629686115
4	9897	33	6246.2400914709
4	11109	34	6237.6145189048
4	11894	35	6229.7690405905
4	12590	36	6221.9181259137
4	13326	37	6214.5874020366
4	14022	38	6207.7797078937
4	14726	39	6200.9777068352
4	15430	40	6194.1748352565
4	16134	41	6187.3856389727
4	16846	42	6180.5841025461
4	17558	43	6173.7812609859
4	18270	44	6166.9795022992
4	18990	45	6160.1694502355
4	19710	46	6153.3726415709
4	20430	47	6146.5729382181
4	21158	48	6139.7706639466
4	21886	49	6133.0121635403
4	22614	50	6126.4173002809
4	23350	51	6119.8311031761
4	24086	52	6113.2402907307
4	24822	53	6106.6506281476
4	25566	54	6100.0546492604
4	26318	55	6093.5034698136
4	27062	56	6084.0931396419
4	27822	57	6077.5801489998
4	28582	58	6071.0738568536
4	29342	59	6064.5693352485
4	30102	60	6058.068817387
4	30862	61	6048.7541743998
4	31622	62	6044.6773346633
4	32382	63	6038.2292434733
4	33142	64	6031.7904289688
4	33902	65	6025.3453298738
4	34662	66	6018.8993478471
4	35422	67	6012.4562007823
4	36182	68	6006.0124374938
4	36942	69	5999.5669260107
4	37702	70	5993.1122211029
4	38462	71	5989.5914141651
4	39222	72	5983.1483574882
4	39982	73	5976.7069865199
4	40742	74	5970.2637266753
4	41502	75	5963.8094125548
4	42262	76	5957.3691413377
4	43022	77	5950.8649817464
4	43782	78	5944.2950963532
4	44542	79	5937.7213222858
4	45302	80	5931.1450570354
4	46047	81	5922.6432102999
4	46799	82	5919.9190704213
4	47551	83	5918.2611194129
4	48295	84	5917.6693572746
4	49039	85	5917.6688214486
4	49783	86	5917.6688214486
4	50519	87	5917.6688214486
4	51255	88	5917.6688214486
4	51991	89	5917.6688214486
4	52719	90	5917.6688214486
4	53447	91	5917.6688214486
4	54175	92	5917.6688214486
4	54959	93	5917.6688214486
4	55679	94	5917.6688214486
4	57004	95	5917.6688214486
4	57716	96	5917.6688214486
4	58648	97	5917.6688214486
5	11	1	6531.1346674873
5	34	2	6531.1346674873
5	57	3	6528.6604084302
5	80	4	6524.662074139
5	128	5	6519.1096391405
5	176	6	6512.0548970692
5	224	7	6503.4441856086
5	309	8	6493.266058579
5	394	9	6482.6262582733
5	479	10	6472.2096492476
5	613	11	6462.3364183829
5	747	12	6452.8317343883
5	881	13	6443.7929354508
5	1076	14	6434.9903514857
5	1271	15	6426.1788846522
5	1466	16	6418.0917677557
5	1734	17	6410.0021287568
5	2002	18	6401.996390843
5	2270	19	6394.2861074943
5	2623	20	6386.5730544511
5	2976	21	6379.6411985288
5	3329	22	6372.7507191665
5	3779	23	6365.8696860128
5	4229	24	6358.984273339
5	4679	25	6351.6322382599
5	5238	26	6344.2871113747
5	5797	27	6336.9405111519
5	6356	28	6329.0768264433
5	7036	29	6319.925280941
5	7756	30	6313.3831535761
5	8444	31	6302.4486828353
5	9201	32	6291.5470357605
5	9897	33	6280.6324529063
5	11109	34	6269.6992688502
5	11894	35	6258.1899123384
5	12590	36	6246.6725806551
5	13326	37	6234.8327149659
5	14022	38	6222.6736829039
5	14726	39	6210.5248191006
5	15430	40	6198.3744004855
5	16134	41	6186.2484069321
5	16846	42	6174.1003729949
5	17558	43	6161.9500079952
5	18270	44	6149.8015770853
5	18990	45	6137.6383336069
5	19710	46	6125.4987437932
5	20430	47	6113.3539838577
5	21158	48	6101.2046320763
5	21886	49	6089.0510016678
5	22614	50	6076.7856030957
5	23350	51	6064.536322195
5	24086	52	6052.2784574937
5	24822	53	6040.0227313536
5	25566	54	6027.7552578909
5	26318	55	6015.4665540923
5	27062	56	6004.7467285876
5	27822	57	5992.4442178195
5	28582	58	5980.1543599667
5	29342	59	5967.8678465222
5	30102	60	5955.5888958246
5	30862	61	5946.262336653
5	31622	62	5932.7999835507
5	32382	63	5920.4422129301
5	33142	64	5908.1022210826
5	33902	65	5895.750184814
5	34662	66	5883.396456406
5	35422	67	5871.0481612044
5	36182	68	5858.6986850096
5	36942	69	5846.3458583987
5	37702	70	5833.975412584
5	38462	71	5820.0824372312
5	39222	72	5807.7343152579
5	39982	73	5795.3894239461
5	40742	74	5783.0409126019
5	41502	75	5770.6712157312
5	42262	76	5758.3284320935
5	43022	77	5745.9442821181
5	43782	78	5733.657381662
5	44542	79	5721.3632086663
5	45302	80	5709.0643766976
5	46047	81	5699.1441931157
5	46799	82	5687.9761890582
5	47551	83	5681.1791799417
5	48295	84	5678.7531657662
5	49039	85	5678.7509690704
5	49783	86	5678.7509690704
5	50519	87	5678.7509690704
5	51255	88	5678.7509690704
5	51991	89	5678.7509690704
5	52719	90	5678.7509690704
5	53447	91	5678.7509690704
5	54175	92	5678.7509690704
5	54959	93	5678.7509690704
5	55679	94	5678.7509690704
5	57004	95	5678.7509690704
5	57716	96	5678.7509690704
5	58648	97	5678.7509690704
6	34	2	3.9572089270348
6	57	3	5.7922925953529
6	80	4	7.6194012491274
6	128	5	9.5894080545995
6	176	6	11.533503466331
6	224	7	13.45866683106
6	309	8	13.873021058196
6	394	9	13.987787734221
6	479	10	13.92303454956
6	613	11	13.997504883918
6	747	12	13.986970504746
6	881	13	13.932265241607
6	1076	14	13.936240355759
6	1271	15	13.918232359637
6	1466	16	13.936552683001
6	1734	17	13.886342563913
6	2002	18	13.998514430835
6	2270	19	13.994200401348
6	2623	20	13.940441952762
6	2976	21	13.967247671166
6	3329	22	13.967575394399
6	3779	23	13.88342104964
6	4229	24	13.919109962026
6	4679	25	13.979139206402
6	5238	26	13.906217133983
6	5797	27	13.912720147136
6	6356	28	13.974052501973
6	7036	29	13.877146519173
6	7756	30	13.972383533192
6	8444	31	13.874784351548
6	9201	32	13.926354206258
6	9897	33	13.95885490339
6	11109	34	13.993917067747
6	11894	35	13.989172172211
6	12590	36	13.965836005642
6	13326	37	13.997647473484
6	14022	38	13.934681099611
6	14726	39	13.872692779272
6	15430	40	13.908931278244
6	16134	41	13.903847774896
6	16846	42	13.992189865122
6	17558	43	13.916172494891
6	18270	44	13.946298803336
6	18990	45	13.9557869027
6	19710	46	13.991121941223
6	20430	47	13.945798586616
6	21158	48	13.973461244183
6	21886	49	13.873393867286
6	22614	50	13.920993560352
6	23350	51	13.954830243031
6	24086	52	13.959084739753
6	24822	53	13.946210133126
6	25566	54	13.964698462414
6	26318	55	13.935359918743
6	27062	56	13.930335212557
6	27822	57	13.913235690866
6	28582	58	13.993462161957
6	29342	59	13.899450892585
6	30102	60	13.968039590705
6	30862	61	13.925235555125
6	31622	62	13.994213748015
6	32382	63	13.997786121189
6	33142	64	13.93089124365
6	33902	65	13.990629580347
6	34662	66	13.987950925902
6	35422	67	13.974100340945
6	36182	68	13.968151272815
6	36942	69	13.969011800368
6	37702	70	13.95641055725
6	38462	71	13.909271020349
6	39222	72	13.888539551676
6	39982	73	13.983309311657
6	40742	74	13.990877436269
6	41502	75	13.898069203745
6	42262	76	13.97649087745
6	43022	77	13.922266382307
6	43782	78	13.93215122181
6	44542	79	13.875748333465
6	45302	80	13.972615288333
6	46047	81	9.472615288333
6	46799	82	4.972615288333
6	47551	83	0.47261528833304
6	48295	84	0
6	49039	85	0
6	49783	86	0
6	50519	87	0
6	51255	88	0
6	51991	89	0
6	52719	90	0
6	53447	91	0
6	54175	92	0
6	54959	93	0
6	55679	94	0
6	57004	95	0
6	57716	96	0
6	58648	97	0
7	57	3	1.8350836683181
7	80	4	1.8271086537745
7	128	5	1.9700068054721
7	176	6	1.9440954117314
7	224	7	1.9251633647294
7	309	8	0.4143542271355
7	394	9	0.11476667602547
7	479	10	-0.064753184660804
7	613	11	0.074470334358047
7	747	12	-0.010534379172604
7	881	13	-0.054705263138748
7	1076	14	0.0039751141518352
7	1271	15	-0.018007996121888
7	1466	16	0.018320323363879
7	1734	17	-0.050210119087716
7	2002	18	0.11217186692171
7	2270	19	-0.0043140294868493
7	2623	20	-0.053758448585867
7	2976	21	0.026805718403775
7	3329	22	0.00032772323349484
7	3779	23	-0.084154344759881
7	4229	24	0.03568891238654
7	4679	25	0.060029244376347
7	5238	26	-0.072922072419898
7	5797	27	0.0065030131535604
7	6356	28	0.061332354836631
7	7036	29	-0.096905982799361
7	7756	30	0.095237014018931
7	8444	31	-0.09759918164462
7	9201	32	0.051569854710252
7	9897	33	0.0325006971322
7	11109	34	0.035062164356933
7	11894	35	-0.0047448955359872
7	12590	36	-0.023336166569498
7	13326	37	0.0318114678422
7	14022	38	-0.062966373872479
7	14726	39	-0.061988320339005
7	15430	40	0.036238498971798
7	16134	41	-0.0050835033482883
7	16846	42	0.08834209022578
7	17558	43	-0.076017370230984
7	18270	44	0.030126308444887
7	18990	45	0.0094880993640984
7	19710	46	0.03533503852319
7	20430	47	-0.045323354606516
7	21158	48	0.027662657566834
7	21886	49	-0.10006737689721
7	22614	50	0.047599693066442
7	23350	51	0.033836682678666
7	24086	52	0.0042544967215505
7	24822	53	-0.012874606626575
7	25566	54	0.018488329288084
7	26318	55	-0.029338543671184
7	27062	56	-0.0050247061857949
7	27822	57	-0.01709952169098
7	28582	58	0.080226471091155
7	29342	59	-0.094011269372421
7	30102	60	0.068588698119855
7	30862	61	-0.042804035579319
7	31622	62	0.068978192890063
7	32382	63	0.0035723731736663
7	33142	64	-0.066894877539017
7	33902	65	0.059738336696755
7	34662	66	-0.0026786544453348
7	35422	67	-0.013850584956819
7	36182	68	-0.0059490681299934
7	36942	69	0.00086052755359489
7	37702	70	-0.012601243117823
7	38462	71	-0.047139536901378
7	39222	72	-0.020731468673329
7	39982	73	0.094769759981427
7	40742	74	0.0075681246118631
7	41502	75	-0.092808232523968
7	42262	76	0.07842167370487
7	43022	77	-0.054224495142698
7	43782	78	0.0098848395026288
7	44542	79	-0.0564028883446
7	45302	80	0.096866954867728
7	46047	81	-4.5
7	46799	82	-4.5
7	47551	83	-4.5
7	48295	84	-0.47261528833304
7	49039	85	0
7	49783	86	0
7	50519	87	0
7	51255	88	0
7	51991	89	0
7	52719	90	0
7	53447	91	0
7	54175	92	0
7	54959	93	0
7	55679	94	0
7	57004	95	0
7	57716	96	0
7	58648	97	0
8	57	3	3.9690439751639
8	80	4	4.8734986088453
8	128	5	6.2068327255978
8	176	6	7.2118621755177
8	224	7	8.2287933875323
8	309	8	3.4112383357952
8	394	9	2.4244807387756
8	479	10	1.8137009457961
8	613	11	2.2898099022095
8	747	12	2.0020020998074
8	881	13	1.8482360798459
8	1076	14	2.0456752375859
8	1271	15	1.9700834342329
8	1466	16	2.0938888010057
8	1734	17	1.859207449473
8	2002	18	2.4171230160978
8	2270	19	2.0237034716781
8	2623	20	1.8521438049225
8	2976	21	2.1257236745966
8	3329	22	2.0366294719502
8	3779	23	1.74537163726
8	4229	24	2.1502956540601
8	4679	25	2.2389467531681
8	5238	26	1.7848725270982
8	5797	27	2.051730205351
8	6356	28	2.2427409462865
8	7036	29	1.7022147078037
8	7756	30	2.3567141215104
8	8444	31	1.6997119428615
8	9201	32	2.2043970256493
8	9897	33	2.1439694939352
8	11109	34	2.1564722740192
8	11894	35	2.0217407169646
8	12590	36	1.9568042668072
8	13326	37	2.145920252644
8	14022	38	1.8207078101042
8	14726	39	1.8186071382616
8	15430	40	2.1510132067525
8	16134	41	2.0119882384581
8	16846	42	2.3359468166122
8	17558	43	1.775330738218
8	18270	44	2.1346075624456
8	18990	45	2.0662325299728
8	19710	46	2.157082246279
8	20430	47	1.8809712392017
8	21158	48	2.1292854758746
8	21886	49	1.6913510140728
8	22614	50	2.1904640554482
8	23350	51	2.1480196234141
8	24086	52	2.0489706365036
8	24822	53	1.9900702104634
8	25566	54	2.0974543255234
8	26318	55	1.9337032225021
8	27062	56	2.0148527118992
8	27822	57	1.9726421209322
8	28582	58	2.3087350069436
8	29342	59	1.7136586749769
8	30102	60	2.2664637521245
8	30862	61	1.8875519823534
8	31622	62	2.2708905792883
8	32382	63	2.0506718940892
8	33142	64	1.807189268369
8	33902	65	2.239309211151
8	34662	66	2.028582469738
8	35422	67	1.9895485894424
8	36182	68	2.0155587191007
8	36942	69	2.0385702511478
8	37702	70	1.9920003134063
8	38462	71	1.8715564033136
8	39222	72	1.9580733856204
8	39982	73	2.3565089134933
8	40742	74	2.0634305841529
8	41502	75	1.71757885006
8	42262	76	2.3005891364225
8	43022	77	1.8489611669918
8	43782	78	2.0650968068441
8	44542	79	1.8375498895155
8	45302	80	2.3622318231771
8	46047	81	0.973
8	46799	82	0.973
8	47551	83	0.973
8	48295	84	0.973
8	49039	85	0.973
8	49783	86	0.973
8	50519	87	0.973
8	51255	88	0.973
8	51991	89	0.973
8	52719	90	0.973
8	53447	91	0.973
8	54175	92	0.973
8	54959	93	0.973
8	55679	94	0.973
8	57004	95	0.973
8	57716	96	0.973
8	58648	97	0.973
11	80	4	6544.7547867117
11	128	5	6544.7547867117
11	176	6	6542.9269134862
11	224	7	6539.8565370628
11	309	8	6535.6372826048
11	394	9	6530.2408223198
11	479	10	6523.6956738157
11	613	11	6516.0532478835
11	747	12	6506.9430276212
11	881	13	6497.6064989675
11	1076	14	6487.6428959689
11	1271	15	6477.3987466699
11	1466	16	6466.6842757547
11	1734	17	6455.829809692
11	2002	18	6444.9203594607
11	2270	19	6433.5182245243
11	2623	20	6422.1278881361
11	2976	21	6410.6207585863
11	3329	22	6399.0470568096
11	3779	23	6387.4448411351
11	4229	24	6375.3465811024
11	4679	25	6363.2539937305
11	5238	26	6351.1654690727
11	5797	27	6339.1415296762
11	6356	28	6327.3208940182
11	7036	29	6315.5092342784
11	7756	30	6303.7098851867
11	8444	31	6292.424540943
11	9201	32	6281.7384638251
11	9897	33	6271.1670740855
11	11109	34	6262.5371728469
11	11894	35	6253.8934723927
11	12590	36	6245.2435168083
11	13326	37	6236.7182618193
11	14022	38	6228.8799958831
11	14726	39	6221.039977453
11	15430	40	6213.8348392193
11	16134	41	6207.0284115341
11	16846	42	6200.2266105143
11	17558	43	6193.4309917701
11	18270	44	6186.625639785
11	18990	45	6179.8238648404
11	19710	46	6173.0274370605
11	20430	47	6166.2298728794
11	21158	48	6159.4402326572
11	21886	49	6152.6398042987
11	22614	50	6145.8326824272
11	23350	51	6139.040167962
11	24086	52	6132.291849872
11	24822	53	6125.6948106233
11	25566	54	6119.1002843139
11	26318	55	6112.5094927776
11	27062	56	6105.9144579565
11	27822	57	6099.3233075553
11	28582	58	6092.7799400084
11	29342	59	6083.3682433461
11	30102	60	6076.8584437769
11	30862	61	6070.361380238
11	31622	62	6063.8494279003
11	32382	63	6057.3011681872
11	33142	64	6047.5456494508
11	33902	65	6043.9271570213
11	34662	66	6037.4837736518
11	35422	67	6031.0459532105
11	36182	68	6024.5989613567
11	36942	69	6018.1514641611
11	37702	70	6011.7104483587
11	38462	71	6005.2724944269
11	39222	72	5998.8288515089
11	39982	73	5992.3812552357
11	40742	74	5988.8619624375
11	41502	75	5982.4178416774
11	42262	76	5975.9690140653
11	43022	77	5969.5159043911
11	43782	78	5963.0684088851
11	44542	79	5956.6206348397
11	45302	80	5950.1147190678
11	46047	81	5943.5395613942
11	46799	82	5936.9652108169
11	47551	83	5930.5545345831
11	48295	84	5924.1862133209
11	49039	85	5921.2706297611
11	49783	86	5920.0842779698
11	50519	87	5919.4086593909
11	51255	88	5919.0765571279
11	51991	89	5918.9334557032
11	52719	90	5918.853713052
11	53447	91	5918.8537126796
11	54175	92	5918.8537126796
11	54959	93	5918.8537126796
11	55679	94	5918.8537126796
11	57004	95	5918.8537126796
11	57716	96	5918.8537126796
11	58648	97	5918.8537126796
12	80	4	6531.1213695459
12	128	5	6531.1213695459
12	176	6	6528.6321354885
12	224	7	6524.4508359017
12	309	8	6518.7049713924
12	394	9	6511.3559646101
12	479	10	6502.4426513998
12	613	11	6492.0350439976
12	747	12	6481.4565434355
12	881	13	6471.0336733782
12	1076	14	6461.2624771066
12	1271	15	6451.7739505617
12	1466	16	6442.8014803245
12	1734	17	6433.9928822108
12	2002	18	6425.2683593857
12	2270	19	6417.1710848968
12	2623	20	6409.0821891969
12	2976	21	6401.1062767956
12	3329	22	6393.4063814981
12	3779	23	6385.7539568107
12	4229	24	6378.8613834293
12	4679	25	6371.972041854
12	5238	26	6365.0850148724
12	5797	27	6358.1594393418
12	6356	28	6350.8101693884
12	7036	29	6343.4664800526
12	7756	30	6336.1304446433
12	8444	31	6328.0677057293
12	9201	32	6319.435723654
12	9897	33	6312.1842902593
12	11109	34	6301.2608165094
12	11894	35	6290.3198761207
12	12590	36	6279.3710181731
12	13326	37	6268.3844551562
12	14022	38	6256.8856792396
12	14726	39	6245.3843324057
12	15430	40	6233.488583571
12	16134	41	6221.3318134937
12	16846	42	6209.183306974
12	17558	43	6197.0458424436
12	18270	44	6184.8909936442
12	18990	45	6172.7425336965
12	19710	46	6160.6036241703
12	20430	47	6148.4626849496
12	21158	48	6136.3358984903
12	21886	49	6124.1898436425
12	22614	50	6112.0318336984
12	23350	51	6099.899913634
12	24086	52	6087.7113326117
12	24822	53	6075.4418870448
12	25566	54	6063.1771151462
12	26318	55	6050.9192893323
12	27062	56	6038.6535716826
12	27822	57	6026.395078437
12	28582	58	6014.0998866824
12	29342	59	6003.3774583129
12	30102	60	5991.0809752226
12	30862	61	5978.8085494601
12	31622	62	5966.5079999648
12	32382	63	5954.196417074
12	33142	64	5945.2122264437
12	33902	65	5931.3622676512
12	34662	66	5919.0135195714
12	35422	67	5906.6754328468
12	36182	68	5894.3197691048
12	36942	69	5881.9631368748
12	37702	70	5869.6189262387
12	38462	71	5857.2805836795
12	39222	72	5844.9313381748
12	39982	73	5832.5745160625
12	40742	74	5818.6844425591
12	41502	75	5806.3342812696
12	42262	76	5793.9750992957
12	43022	77	5781.6077107472
12	43782	78	5769.2510817552
12	44542	79	5756.8939189425
12	45302	80	5744.5411521857
12	46047	81	5732.2443915905
12	46799	82	5719.9491404145
12	47551	83	5707.9599905243
12	48295	84	5699.9646710848
12	49039	85	5693.5171013695
12	49783	86	5688.6534812141
12	50519	87	5685.8836854746
12	51255	88	5684.5221843821
12	51991	89	5683.9355194665
12	52719	90	5683.6086029748
12	53447	91	5683.6086014482
12	54175	92	5683.6086014482
12	54959	93	5683.6086014482
12	55679	94	5683.6086014482
12	57004	95	5683.6086014482
12	57716	96	5683.6086014482
12	58648	97	5683.6086014482
13	128	5	4.0425376740037
13	176	6	5.9899797741635
13	224	7	7.995898233327
13	309	8	9.9805223184414
13	394	9	11.797888050693
13	479	10	13.711042579702
13	613	11	13.938882815507
13	747	12	13.987056018973
13	881	13	13.93635863753
13	1076	14	13.873869230964
13	1271	15	13.999992804453
13	1466	16	13.983771702084
13	1734	17	13.935241770302
13	2002	18	13.930649462088
13	2270	19	13.907026762653
13	2623	20	13.934554434547
13	2976	21	13.995779511507
13	3329	22	13.97032573021
13	3779	23	13.971981254104
13	4229	24	13.998893493533
13	4679	25	13.924586101961
13	5238	26	13.878107421112
13	5797	27	13.983900225542
13	6356	28	13.907319508991
13	7036	29	13.882986723597
13	7756	30	13.958137745832
13	8444	31	13.923872860384
13	9201	32	13.924832654756
13	9897	33	13.874538379777
13	11109	34	13.936370377755
13	11894	35	13.9920988397
13	12590	36	13.992671618795
13	13326	37	13.989226098044
13	14022	38	13.992084010507
13	14726	39	13.879044310157
13	15430	40	13.98003427366
13	16134	41	13.887767084674
13	16846	42	13.886511224837
13	17558	43	13.95842159532
13	18270	44	13.962671596035
13	18990	45	13.943335208059
13	19710	46	13.87922140023
13	20430	47	13.898497491931
13	21158	48	13.890324414629
13	21886	49	13.966441708887
13	22614	50	13.874335282727
13	23350	51	13.97060139681
13	24086	52	13.923944034639
13	24822	53	13.895295248253
13	25566	54	13.874886664264
13	26318	55	13.948966026471
13	27062	56	13.971302986667
13	27822	57	13.890418468181
13	28582	58	13.969534877376
13	29342	59	13.906054536221
13	30102	60	13.907634307826
13	30862	61	13.947981194756
13	31622	62	13.996098053281
13	32382	63	13.918897172834
13	33142	64	13.987243941503
13	33902	65	13.875857114601
13	34662	66	13.881607473206
13	35422	67	13.9783283938
13	36182	68	13.953760877589
13	36942	69	13.887361097515
13	37702	70	13.888812124645
13	38462	71	13.96323270431
13	39222	72	13.991120929152
13	39982	73	13.995037404958
13	40742	74	13.890217431381
13	41502	75	13.993296942383
13	42262	76	13.949353997824
13	43022	77	13.955188313036
13	43782	78	13.95176415558
13	44542	79	13.909760839259
13	45302	80	13.975355397863
13	46047	81	13.900490334614
13	46799	82	12.651523755086
13	47551	83	9.3530649369945
13	48295	84	6.4005136540274
13	49039	85	3.900138400569
13	49783	86	2.0677180055756
13	50519	87	0.936348959731
13	51255	88	0.44121188033314
13	51991	89	0.0005797536643104
13	52719	90	1.1763902306452e-14
13	53447	91	1.1864479901688e-14
13	54175	92	1.1819604069046e-14
13	54959	93	1.1762900102679e-14
13	55679	94	1.1960897377294e-14
13	57004	95	1.1865846680957e-14
13	57716	96	1.1949623348417e-14
13	58648	97	1.1739772354476e-14
14	176	6	1.9474421001598
14	224	7	2.0059184591635
14	309	8	1.9846240851143
14	394	9	1.8173657322512
14	479	10	1.9131545290095
14	613	11	0.22784023580519
14	747	12	0.048173203465995
14	881	13	-0.050697381442879
14	1076	14	-0.0624894065666
14	1271	15	0.12612357348902
14	1466	16	-0.016221102369018
14	1734	17	-0.048529931781813
14	2002	18	-0.0045923082134696
14	2270	19	-0.0236226994358
14	2623	20	0.027527671894058
14	2976	21	0.061225076960399
14	3329	22	-0.025453781296964
14	3779	23	0.0016555238934224
14	4229	24	0.026912239429077
14	4679	25	-0.074307391571347
14	5238	26	-0.046478680849541
14	5797	27	0.10579280443024
14	6356	28	-0.076580716550817
14	7036	29	-0.024332785394508
14	7756	30	0.075151022234932
14	8444	31	-0.03426488544792
14	9201	32	0.00095979437231897
14	9897	33	-0.050294274978805
14	11109	34	0.061831997977571
14	11894	35	0.055728461944964
14	12590	36	0.00057277909479936
14	13326	37	-0.0034455207502475
14	14022	38	0.0028579124622059
14	14726	39	-0.11303970034933
14	15430	40	0.10098996350309
14	16134	41	-0.092267188986298
14	16846	42	-0.0012558598374017
14	17558	43	0.071910370483529
14	18270	44	0.0042500007152562
14	18990	45	-0.019336387976074
14	19710	46	-0.064113807829562
14	20430	47	0.019276091700885
14	21158	48	-0.0081730773020521
14	21886	49	0.076117294258438
14	22614	50	-0.092106426160317
14	23350	51	0.096266114083118
14	24086	52	-0.046657362170517
14	24822	53	-0.028648786386475
14	25566	54	-0.020408583988901
14	26318	55	0.074079362207558
14	27062	56	0.022336960195098
14	27822	57	-0.080884518485982
14	28582	58	0.079116409195123
14	29342	59	-0.063480341155083
14	30102	60	0.0015797716053196
14	30862	61	0.040346886930056
14	31622	62	0.048116858524736
14	32382	63	-0.077200880446471
14	33142	64	0.068346768668853
14	33902	65	-0.11138682690216
14	34662	66	0.005750358605292
14	35422	67	0.096720920593944
14	36182	68	-0.024567516210956
14	36942	69	-0.066399780074134
14	37702	70	0.0014510271302424
14	38462	71	0.074420579664874
14	39222	72	0.027888224842027
14	39982	73	0.003916475805454
14	40742	74	-0.10481997357681
14	41502	75	0.10307951100171
14	42262	76	-0.043942944558802
14	43022	77	0.0058343152119775
14	43782	78	-0.0034241574560294
14	44542	79	-0.042003316320478
14	45302	80	0.065594558604062
14	46047	81	-0.0748650632496
14	46799	82	-1.2489665795273
14	47551	83	-3.2984588180919
14	48295	84	-2.9525512829671
14	49039	85	-2.5003752534585
14	49783	86	-1.8324203949934
14	50519	87	-1.1313690458446
14	51255	88	-0.49513707939786
14	51991	89	-0.44063212666883
14	52719	90	-0.00057975366429863
14	53447	91	1.0057759523605e-16
14	54175	92	-4.4875832642261e-17
14	54959	93	-5.6703966367504e-17
14	55679	94	1.9799727461487e-16
14	57004	95	-9.5050696336775e-17
14	57716	96	8.3776667459793e-17
14	58648	97	-2.0985099394068e-16
15	176	6	4.2301091069722
15	224	7	5.4083752898229
15	309	8	6.4569285084612
15	394	9	6.9981297601067
15	479	10	8.3312879690391
15	613	11	2.7979710561013
15	747	12	2.1999068898786
15	881	13	1.862060966402
15	1076	14	1.8170336337383
15	1271	15	2.4643876269913
15	1466	16	1.9825177553303
15	1734	17	1.8692397712926
15	2002	18	2.0163360752151
15	2270	19	1.9501722039104
15	2623	20	2.1245964095562
15	2976	21	2.244926002996
15	3329	22	1.9501086784574
15	3779	23	2.0415516808395
15	4229	24	2.1295288887144
15	4679	25	1.7817726947314
15	5238	26	1.8709502657584
15	5797	27	2.3937319200063
15	6356	28	1.7727028712565
15	7036	29	1.9454872553412
15	7756	30	2.287362462657
15	8444	31	1.9160815067495
15	9201	32	2.0343814173859
15	9897	33	1.8578691721442
15	11109	34	2.2400105387438
15	11894	35	2.2259592691187
15	12590	36	2.0400278102665
15	13326	37	2.0261268980361
15	14022	38	2.0476731800195
15	14726	39	1.6483983738959
15	15430	40	2.377055731479
15	16134	41	1.7185720768771
15	16846	42	2.0230552909982
15	17558	43	2.2764951366711
15	18270	44	2.0493259613889
15	18990	45	1.9680717047449
15	19710	46	1.8120633902435
15	20430	47	2.0930435500126
15	21158	48	2.0002860673589
15	21886	49	2.2916144637286
15	22614	50	1.7180430926245
15	23350	51	2.3599557301744
15	24086	52	1.8745031079248
15	24822	53	1.9322135985171
15	25566	54	1.9578335318217
15	26318	55	2.2826564095211
15	27062	56	2.1111181307223
15	27822	57	1.7568872931622
15	28582	58	2.3020846637617
15	29342	59	1.8165014592351
15	30102	60	2.0347027457317
15	30862	61	2.1691477337734
15	31622	62	2.2007485599388
15	32382	63	1.7715884919976
15	33142	64	2.2679319172031
15	33902	65	1.6536886876506
15	34662	66	2.0459973213243
15	35422	67	2.3624580810279
15	36182	68	1.9514966765889
15	36942	69	1.8051142614343
15	37702	70	2.0323490765102
15	38462	71	2.2855176792
15	39222	72	2.1319725196827
15	39982	73	2.0515482898801
15	40742	74	1.6767458135493
15	41502	75	2.3857841152748
15	42262	76	1.8859362533609
15	43022	77	2.0538815687598
15	43782	78	2.0223963523283
15	44542	79	1.8888186386586
15	45302	80	2.2572489332096
15	46047	81	1.7778810630087
15	46799	82	0.973
15	47551	83	0.973
15	48295	84	0.973
15	49039	85	0.973
15	49783	86	0.973
15	50519	87	0.973
15	51255	88	0.973
15	51991	89	0.973
15	52719	90	1.11
15	53447	91	1.11
15	54175	92	1.11
15	54959	93	1.11
15	55679	94	1.11
15	57004	95	1.11
15	57716	96	1.11
15	58648	97	1.11
18	224	7	6544.7411069386
18	309	8	6544.7411069386
18	394	9	6542.8327836145
18	479	10	6539.7082380326
18	613	11	6535.3845433511
18	747	12	6529.9463628854
18	881	13	6523.3455521294
18	1076	14	6515.6662042744
18	1271	15	6506.5062596228
18	1466	16	6497.1770603648
18	1734	17	6487.1661697946
18	2002	18	6476.9033290813
18	2270	19	6466.1722703323
18	2623	20	6455.3010829245
18	2976	21	6444.3507541208
18	3329	22	6432.9581673784
18	3779	23	6421.5682899234
18	4229	24	6410.0480254188
18	4679	25	6398.4652141119
18	5238	26	6386.8573320575
18	5797	27	6374.7748988376
18	6356	28	6362.6837209533
18	7036	29	6350.5881432668
18	7756	30	6338.5693961746
18	8444	31	6326.7542821622
18	9201	32	6314.9355537617
18	9897	33	6303.1157538485
18	11109	34	6291.9036768809
18	11894	35	6281.0563304246
18	12590	36	6270.7184100398
18	13326	37	6262.0836061553
18	14022	38	6253.4552238611
18	14726	39	6244.828975786
18	15430	40	6236.3381163176
18	16134	41	6228.496634235
18	16846	42	6220.6534469596
18	17558	43	6213.4923463944
18	18270	44	6206.6926116205
18	18990	45	6199.8911595873
18	19710	46	6193.0964344853
18	20430	47	6186.3007127153
18	21158	48	6179.5064917286
18	21886	49	6172.7011028689
18	22614	50	6165.904443017
18	23350	51	6159.1076878126
18	24086	52	6152.3060753762
18	24822	53	6145.5054060738
18	25566	54	6138.7041664497
18	26318	55	6131.968435016
18	27062	56	6125.3688438344
18	27822	57	6118.7740374578
18	28582	58	6112.1870066675
18	29342	59	6105.5912880171
18	30102	60	6098.9938598856
18	30862	61	6092.4603044865
18	31622	62	6083.0501548175
18	32382	63	6076.5418861124
18	33142	64	6070.0346913737
18	33902	65	6063.5226916655
18	34662	66	6056.9488175328
18	35422	67	6050.1005018027
18	36182	68	6043.6601100899
18	36942	69	6037.2207279784
18	37702	70	6030.7689912293
18	38462	71	6024.3155773332
18	39222	72	6017.8796387192
18	39982	73	6011.430230728
18	40742	74	6004.9925072898
18	41502	75	5998.5485553812
18	42262	76	5992.1072502301
18	43022	77	5988.5878540261
18	43782	78	5982.1429677873
18	44542	79	5975.6936693756
18	45302	80	5969.2394878705
18	46047	81	5962.7868255524
18	46799	82	5956.3457971208
18	47551	83	5949.8276510647
18	48295	84	5943.2573007371
18	49039	85	5936.7614345865
18	49783	86	5931.2528069318
18	50519	87	5926.9767527622
18	51255	88	5922.2750052614
18	51991	89	5921.2127553553
18	52719	90	5920.5750924737
18	53447	91	5920.2527609625
18	54175	92	5920.1143721863
18	54959	93	5920.0386039177
18	55679	94	5920.0386039107
18	57004	95	5920.0386039107
18	57716	96	5920.0386039107
18	58648	97	5920.0386039107
19	224	7	6531.1027401593
19	309	8	6531.1027401593
19	394	9	6528.5039475599
19	479	10	6524.2488793373
19	613	11	6518.3607860576
19	747	12	6510.9549639049
19	881	13	6501.9658487345
19	1076	14	6491.5079603245
19	1271	15	6480.9689557827
19	1466	16	6470.5542679247
19	1734	17	6460.8098654859
19	2002	18	6451.31818504
19	2270	19	6442.3859785419
19	2623	20	6433.5638107502
19	2976	21	6424.8638517375
19	3329	22	6416.773357939
19	3779	23	6408.6847881525
19	4229	24	6400.7252417985
19	4679	25	6393.0192860002
19	5238	26	6385.4192434372
19	5797	27	6378.5356868456
19	6356	28	6371.6471482781
19	7036	29	6364.7561030725
19	7756	30	6357.8037255143
19	8444	31	6350.4578885459
19	9201	32	6343.1098043961
19	9897	33	6335.7610540522
19	11109	34	6327.6133508516
19	11894	35	6319.3511347744
19	12590	36	6311.6163845799
19	13326	37	6300.6867052059
19	14022	38	6289.765154091
19	14726	39	6278.8463044075
19	15430	40	6267.8267797755
19	16134	41	6256.323285756
19	16846	42	6244.8172902098
19	17558	43	6232.8768667178
19	18270	44	6220.732050662
19	18990	45	6208.5841674575
19	19710	46	6196.4482990366
19	20430	47	6184.3106504948
19	21158	48	6172.1756824602
19	21886	49	6160.0207678
19	22614	50	6147.8814437764
19	23350	51	6135.7419494464
19	24086	52	6123.5937797501
19	24822	53	6111.4472945592
19	25566	54	6099.2997907326
19	26318	55	6087.1098323292
19	27062	56	6074.8356405725
19	27822	57	6062.5703477932
19	28582	58	6050.3195163697
19	29342	59	6038.0525269062
19	30102	60	6025.782358079
19	30862	61	6013.4961306967
19	31622	62	6002.7766148966
19	32382	63	5990.4830234843
19	33142	64	5978.1914607076
19	33902	65	5965.8908217333
19	34662	66	5953.6670975098
19	35422	67	5943.1934866156
19	36182	68	5930.8504720475
19	36942	69	5918.509392381
19	37702	70	5906.1446350442
19	38462	71	5893.7766634542
19	39222	72	5881.4421832527
19	39982	73	5869.0818889819
19	40742	74	5856.7439881637
19	41502	75	5844.3941504785
19	42262	76	5832.0493853055
19	43022	77	5818.1591136247
19	43782	78	5805.8074852951
19	44542	79	5793.4474010333
19	45302	80	5781.0779583202
19	46047	81	5768.7114271297
19	46799	82	5756.36719229
19	47551	83	5744.0042819411
19	48295	84	5731.7165119717
19	49039	85	5719.5680411855
19	49783	86	5709.2658889267
19	50519	87	5701.2688769878
19	51255	88	5697.6346834914
19	51991	89	5693.2798369014
19	52719	90	5690.6656460131
19	53447	91	5689.3442015261
19	54175	92	5688.7768567921
19	54959	93	5688.4662338548
19	55679	94	5688.4662338259
19	57004	95	5688.4662338259
19	57716	96	5688.4662338259
19	58648	97	5688.4662338259
20	309	8	4.0617275998512
20	394	9	6.1353786575448
20	479	10	8.1828713404717
20	613	11	10.026246972497
20	747	12	11.901434952405
20	881	13	13.915206189375
20	1076	14	13.970436098205
20	1271	15	13.886555414519
20	1466	16	13.953770344446
20	1734	17	13.961907363075
20	2002	18	13.899824502657
20	2270	19	13.896026535179
20	2623	20	13.923172058796
20	2976	21	13.971249081446
20	3329	22	13.986232199401
20	3779	23	13.947124665573
20	4229	24	13.963721167336
20	4679	25	13.884780393564
20	5238	26	13.917114249484
20	5797	27	13.95518664412
20	6356	28	13.943712053264
20	7036	29	13.871054257208
20	7756	30	13.976205671804
20	8444	31	13.980785826514
20	9201	32	13.952170726154
20	9897	33	13.937264048993
20	11109	34	13.946489982579
20	11894	35	13.993360187728
20	12590	36	13.932131886138
20	13326	37	13.923223900921
20	14022	38	13.977923465082
20	14726	39	13.887993174859
20	15430	40	13.885199912419
20	16134	41	13.875606826465
20	16846	42	13.97271813879
20	17558	43	13.873846661521
20	18270	44	13.907692420084
20	18990	45	13.991082411509
20	19710	46	13.897260387074
20	20430	47	13.947938937382
20	21158	48	13.966815613133
20	21886	49	13.908917665703
20	22614	50	13.936590607513
20	23350	51	13.94095851501
20	24086	52	13.924780702849
20	24822	53	13.980306819661
20	25566	54	13.939959053113
20	26318	55	13.949037176876
20	27062	56	13.913207606173
20	27822	57	13.946096261097
20	28582	58	13.94528168231
20	29342	59	13.947184575507
20	30102	60	13.904693541268
20	30862	61	13.870506943234
20	31622	62	13.967780975241
20	32382	63	13.906847937347
20	33142	64	13.915581545441
20	33902	65	13.988346477961
20	34662	66	13.940793268981
20	35422	67	13.914641337572
20	36182	68	13.922916979056
20	36942	69	13.933647920119
20	37702	70	13.986351204184
20	38462	71	13.964299126221
20	39222	72	13.919747772247
20	39982	73	13.992747193652
20	40742	74	13.934901361787
20	41502	75	13.946526139411
20	42262	76	13.993809300952
20	43022	77	13.891022757578
20	43782	78	13.952195531039
20	44542	79	13.993949997013
20	45302	80	13.926962756934
20	46047	81	13.886219395467
20	46799	82	13.973862651372
20	47551	83	13.90095126912
20	48295	84	13.18551508128
20	49039	85	10.53691384945
20	49783	86	8.0101291393468
20	50519	87	5.6538757667672
20	51255	88	3.5988636419298
20	51991	89	1.9925687503228
20	52719	90	0.92432282814501
20	53447	91	0.44645058920374
20	54175	92	1.2535061503736e-05
20	54959	93	0
20	55679	94	0
20	57004	95	0
20	57716	96	0
20	58648	97	0
21	394	9	2.0736510576936
21	479	10	2.0474926829268
21	613	11	1.8433756320248
21	747	12	1.8751879799087
21	881	13	2.0137712369696
21	1076	14	0.055229908830604
21	1271	15	-0.083880683686585
21	1466	16	0.067214929927141
21	1734	17	0.0081370186293501
21	2002	18	-0.062082860418595
21	2270	19	-0.0037979674781674
21	2623	20	0.027145523617509
21	2976	21	0.048077022649814
21	3329	22	0.014983117955271
21	3779	23	-0.039107533828355
21	4229	24	0.016596501762978
21	4679	25	-0.07894077377161
21	5238	26	0.032333855920006
21	5797	27	0.038072394635527
21	6356	28	-0.01147459085565
21	7036	29	-0.07265779605601
21	7756	30	0.10515141459648
21	8444	31	0.0045801547099842
21	9201	32	-0.028615100360476
21	9897	33	-0.014906677161344
21	11109	34	0.0092259335867126
21	11894	35	0.04687020514859
21	12590	36	-0.06122830159031
21	13326	37	-0.008907985216938
21	14022	38	0.054699564161711
21	14726	39	-0.089930290223565
21	15430	40	-0.0027932624402442
21	16134	41	-0.0095930859539664
21	16846	42	0.097111312325579
21	17558	43	-0.098871477269569
21	18270	44	0.033845758563839
21	18990	45	0.083389991424047
21	19710	46	-0.093822024434338
21	20430	47	0.050678550307639
21	21158	48	0.018876675751525
21	21886	49	-0.057897947430611
21	22614	50	0.027672941810453
21	23350	51	0.0043679074966345
21	24086	52	-0.016177812160459
21	24822	53	0.05552611681167
21	25566	54	-0.04034776654793
21	26318	55	0.0090781237627393
21	27062	56	-0.035829570703209
21	27822	57	0.032888654924463
21	28582	58	-0.00081457878695801
21	29342	59	0.0019028931972578
21	30102	60	-0.042491034239065
21	30862	61	-0.034186598034577
21	31622	62	0.097274032006972
21	32382	63	-0.060933037893847
21	33142	64	0.0087336080940439
21	33902	65	0.072764932520222
21	34662	66	-0.047553208980244
21	35422	67	-0.026151931409258
21	36182	68	0.0082756414846514
21	36942	69	0.010730941062793
21	37702	70	0.052703284064773
21	38462	71	-0.022052077963016
21	39222	72	-0.044551353973802
21	39982	73	0.072999421404674
21	40742	74	-0.057845831864979
21	41502	75	0.011624777624384
21	42262	76	0.047283161540982
21	43022	77	-0.10278654337395
21	43782	78	0.061172773460857
21	44542	79	0.041754465973936
21	45302	80	-0.066987240079325
21	46047	81	-0.04074336146703
21	46799	82	0.087643255905714
21	47551	83	-0.07291138225235
21	48295	84	-0.71543618784031
21	49039	85	-2.6486012318296
21	49783	86	-2.5267847101032
21	50519	87	-2.3562533725797
21	51255	88	-2.0550121248374
21	51991	89	-1.606294891607
21	52719	90	-1.0682459221778
21	53447	91	-0.47787223894127
21	54175	92	-0.44643805414224
21	54959	93	-1.2535061503736e-05
21	55679	94	0
21	57004	95	0
21	57716	96	0
21	58648	97	0
22	394	9	4.4934607714223
22	479	10	5.5931609271493
22	613	11	6.1409699278974
22	747	12	7.2183547368087
22	881	13	8.7834912543851
22	1076	14	2.2217712025271
22	1271	15	1.7465425899189
22	1466	16	2.2601489812464
22	1734	17	2.0623261375086
22	2002	18	1.8206438640178
22	2270	19	2.0155069204561
22	2623	20	2.1220775089348
22	2976	21	2.1977809426547
22	3329	22	2.0879396984702
22	3779	23	1.9019851770914
22	4229	24	2.0909835264368
22	4679	25	1.7629280817832
22	5238	26	2.1388221337706
22	5797	27	2.1623045039429
22	6356	28	1.9945274876866
22	7036	29	1.7827979459955
22	7756	30	2.3905874139578
22	8444	31	2.0523107293039
22	9201	32	1.9377336939077
22	9897	33	1.9823590225206
22	11109	34	2.0643801428982
22	11894	35	2.1962319174063
22	12590	36	1.8263221917045
22	13326	37	2.0011056948475
22	14022	38	2.2208506976364
22	14726	39	1.7264116560733
22	15430	40	2.0177776966881
22	16134	41	1.9940704098336
22	16846	42	2.3630676060685
22	17558	43	1.6953846968218
22	18270	44	2.14285633304
22	18990	45	2.3191119925857
22	19710	46	1.7141191972045
22	20430	47	2.2038724098363
22	21158	48	2.0989875045943
22	21886	49	1.835461705524
22	22614	50	2.1253056503877
22	23350	51	2.0474810988761
22	24086	52	1.976864491006
22	24822	53	2.2239110301864
22	25566	54	1.8971543496651
22	26318	55	2.0641491180934
22	27062	56	1.9098359656382
22	27822	57	2.1438696757415
22	28582	58	2.0305097575425
22	29342	59	2.0398379110686
22	30102	60	1.8867195159196
22	30862	61	1.9113531638127
22	31622	62	2.362994599366
22	32382	63	1.8251075325536
22	33142	64	2.0595068972023
22	33902	65	2.2829575245607
22	34662	66	1.8730230593347
22	35422	67	1.9424229445528
22	36182	68	2.0587333950587
22	36942	69	2.0680943112381
22	37702	70	2.2150960857767
22	38462	71	1.9609771726174
22	39222	72	1.8811874064915
22	39982	73	2.2842764620081
22	40742	74	1.837923319992
22	41502	75	2.0724467019114
22	42262	76	2.1976757273701
22	43022	77	1.6836147705967
22	43782	78	2.2396459088389
22	44542	79	2.179045995847
22	45302	80	1.8065418569743
22	46047	81	1.8908776671929
22	46799	82	2.3313259527536
22	47551	83	1.7844647495139
22	48295	84	0.973
22	49039	85	0.973
22	49783	86	0.973
22	50519	87	0.973
22	51255	88	0.973
22	51991	89	0.973
22	52719	90	0.973
22	53447	91	0.973
22	54175	92	0.973
22	54959	93	0.973
22	55679	94	0.973
22	57004	95	0.973
22	57716	96	0.973
22	58648	97	0.973
25	479	10	6544.7377055239
25	613	11	6544.7377055239
25	747	12	6542.9273016289
25	881	13	6539.9639913768
25	1076	14	6535.7573658815
25	1271	15	6530.3976728871
25	1466	16	6523.9098053222
25	1734	17	6516.2802822618
25	2002	18	6507.207454093
25	2270	19	6497.8938230276
25	2623	20	6487.9455250006
25	2976	21	6477.7070960672
25	3329	22	6467.0083205866
25	3779	23	6456.1600417282
25	4229	24	6445.2700494563
25	4679	25	6433.8859985061
25	5238	26	6422.4956622372
25	5797	27	6410.9851196305
25	6356	28	6399.3940102122
25	7036	29	6387.7963743589
25	7756	30	6375.7031928051
25	8444	31	6363.6202603525
25	9201	32	6351.5437260746
25	9897	33	6339.4942773634
25	11109	34	6327.6931568187
25	11894	35	6315.875787561
25	12590	36	6304.0895443028
25	13326	37	6292.7798065406
25	14022	38	6282.1989026764
25	14726	39	6271.4686153475
25	15430	40	6262.8435264986
25	16134	41	6254.2197520497
25	16846	42	6245.5870235938
25	17558	43	6237.0219158773
25	18270	44	6229.1756439616
25	18990	45	6221.3297149842
25	19710	46	6214.0893266365
25	20430	47	6207.2709805926
25	21158	48	6200.4660778227
25	21886	49	6193.6616250262
25	22614	50	6186.852258888
25	23350	51	6180.0556455385
25	24086	52	6173.2488378526
25	24822	53	6166.44986005
25	25566	54	6159.64820053
25	26318	55	6152.8494426441
25	27062	56	6146.0382137573
25	27822	57	6139.2421902643
25	28582	58	6132.4956535283
25	29342	59	6125.8999907233
25	30102	60	6119.3085998168
25	30862	61	6112.7173429421
25	31622	62	6106.1330472924
25	32382	63	6099.5367717171
25	33142	64	6092.9831438548
25	33902	65	6083.5831675908
25	34662	66	6077.0843599196
25	35422	67	6070.5732694897
25	36182	68	6064.0780686291
25	36942	69	6057.5744846006
25	37702	70	6047.9285936057
25	38462	71	6044.1769669291
25	39222	72	6037.738348159
25	39982	73	6031.2944435852
25	40742	74	6024.8439672041
25	41502	75	6018.397439374
25	42262	76	6011.9540896456
25	43022	77	6005.5083392103
25	43782	78	5999.0677232487
25	44542	79	5992.6150092441
25	45302	80	5989.0955932084
25	46047	81	5982.6489676376
25	46799	82	5976.2120527741
25	47551	83	5969.7649150455
25	48295	84	5963.3190556535
25	49039	85	5956.8792861741
25	49783	86	5950.3664971136
25	50519	87	5943.7997717486
25	51255	88	5937.5539909588
25	51991	89	5932.4614750235
25	52719	90	5928.5190700048
25	53447	91	5924.5800055248
25	54175	92	5922.2376332541
25	54959	93	5921.677584119
25	55679	94	5921.4004326815
25	57004	95	5921.2782414032
25	57716	96	5921.2234951417
25	58648	97	5921.2234951417
26	479	10	6531.0981080452
26	613	11	6531.0981080452
26	747	12	6528.6326640689
26	881	13	6524.5971693204
26	1076	14	6518.8685031833
26	1271	15	6511.5695668275
26	1466	16	6502.7342599377
26	1734	17	6492.3442239224
26	2002	18	6481.7517369553
26	2270	19	6471.3544287096
26	2623	20	6461.5497980551
26	2976	21	6452.0576203932
26	3329	22	6443.0644486436
26	3779	23	6434.2608715595
26	4229	24	6425.5166932193
26	4679	25	6417.4322611499
26	5238	26	6409.3433655348
26	5797	27	6401.3486834124
26	6356	28	6393.637206944
26	7036	29	6385.9542309439
26	7756	30	6379.0645508536
26	8444	31	6372.1807098412
26	9201	32	6365.3005139718
26	9897	33	6358.3787539416
26	11109	34	6351.0416171628
26	11894	35	6343.6943780358
26	12590	36	6336.3664909452
26	13326	37	6328.3776074271
26	14022	38	6319.4928209996
26	14726	39	6312.5659722702
26	15430	40	6301.6485899011
26	16134	41	6290.7328712604
26	16846	42	6279.8058189026
26	17558	43	6268.8299172007
26	18270	44	6257.3193964716
26	18990	45	6245.8093788347
26	19710	46	6233.9431164276
26	20430	47	6221.7650593031
26	21158	48	6209.6110128342
26	21886	49	6197.4577700504
26	22614	50	6185.2957516844
26	23350	51	6173.1565107173
26	24086	52	6160.9990619314
26	24822	53	6148.8555978809
26	25566	54	6136.7073440899
26	26318	55	6124.5642728265
26	27062	56	6112.3989274572
26	27822	57	6100.2607400165
26	28582	58	6088.0903750537
26	29342	59	6075.8234894535
26	30102	60	6063.5645489065
26	30862	61	6051.3058576372
26	31622	62	6039.0601131412
26	32382	63	6026.7920878856
26	33142	64	6014.4837161701
26	33902	65	6003.7834327692
26	34662	66	5991.5077124823
26	35422	67	5979.2087910609
26	36182	68	5966.9398837464
26	36942	69	5954.6551413081
26	37702	70	5945.5890921199
26	38462	71	5931.8410284888
26	39222	72	5919.5014117666
26	39982	73	5907.1516647984
26	40742	74	5894.7893229577
26	41502	75	5882.4345485172
26	42262	76	5870.0858649106
26	43022	77	5857.7325803479
26	43782	78	5845.3891360069
26	44542	79	5833.0225057593
26	45302	80	5819.1321960711
26	46047	81	5806.7772343106
26	46799	82	5794.4408831265
26	47551	83	5782.0849398151
26	48295	84	5769.7314464368
26	49039	85	5757.3896243796
26	49783	86	5745.012023685
26	50519	87	5732.731033066
26	51255	88	5721.0502681452
26	51991	89	5711.5263217408
26	52719	90	5704.1532954057
26	53447	91	5700.0903283961
26	54175	92	5697.4814715612
26	54959	93	5695.185469413
26	55679	94	5694.0492471498
26	57004	95	5693.548306393
26	57716	96	5693.3238662038
26	58648	97	5693.3238662036
27	613	11	3.8961603405194
27	747	12	5.9431185399189
27	881	13	8.0030716841232
27	1076	14	9.8785809574073
27	1271	15	11.785061293136
27	1466	16	13.70330721112
27	1734	17	13.890208489886
27	2002	18	13.960404336064
27	2270	19	13.936193579829
27	2623	20	13.876016220436
27	2976	21	13.924580276464
27	3329	22	13.936363788142
27	3779	23	13.924611387956
27	4229	24	13.874047666781
27	4679	25	13.922268225446
27	5238	26	13.912634662511
27	5797	27	13.888621817816
27	6356	28	13.944497356312
27	7036	29	13.947440151037
27	7756	30	13.92052743519
27	8444	31	13.967028657938
27	9201	32	13.960170255525
27	9897	33	13.936143864484
27	11109	34	13.87025668703
27	11894	35	13.882372528426
27	12590	36	13.872840013702
27	13326	37	13.900441777564
27	14022	38	13.884846475685
27	14726	39	13.916355514945
27	15430	40	13.901216478706
27	16134	41	13.8991945089
27	16846	42	13.870019001605
27	17558	43	13.974461371491
27	18270	44	13.941924222324
27	18990	45	13.959874486474
27	19710	46	13.993041148894
27	20430	47	13.915695403698
27	21158	48	13.931995849772
27	21886	49	13.91176969649
27	22614	50	13.873288607073
27	23350	51	13.940949799435
27	24086	52	13.879172491739
27	24822	53	13.897100128331
27	25566	54	13.91212590002
27	26318	55	13.970963432102
27	27062	56	13.874191384919
27	27822	57	13.918002955925
27	28582	58	13.985595483549
27	29342	59	13.937128580515
27	30102	60	13.877716980739
27	30862	61	13.875585862072
27	31622	62	13.985739630312
27	32382	63	13.975610429053
27	33142	64	13.931069816339
27	33902	65	13.938345316986
27	34662	66	13.940862444914
27	35422	67	13.912084410938
27	36182	68	13.893305731628
27	36942	69	13.95576993925
27	37702	70	13.936219595282
27	38462	71	13.909512465512
27	39222	72	13.893027971543
27	39982	73	13.987371992418
27	40742	74	13.987871135471
27	41502	75	13.998984251597
27	42262	76	13.95750378028
27	43022	77	13.988349752685
27	43782	78	13.97467882171
27	44542	79	13.882171511664
27	45302	80	13.937109438921
27	46047	81	13.875990958565
27	46799	82	13.938321073905
27	47551	83	13.984084542731
27	48295	84	13.945859372113
27	49039	85	13.878126587828
27	49783	86	13.983854215695
27	50519	87	12.132518820822
27	51255	88	9.7093960187606
27	51991	89	7.2621142518154
27	52719	90	5.0871652430331
27	53447	91	3.2044176363304
27	54175	92	1.7695961383743
27	54959	93	0.77621610601768
27	55679	94	0.44370077708038
27	57004	95	5.981099557825e-08
27	57716	96	3.1869320030496e-15
27	58648	97	3.1797582804009e-15
28	747	12	2.0469581993995
28	881	13	2.0599531442043
28	1076	14	1.8755092732841
28	1271	15	1.9064803357283
28	1466	16	1.9182459179847
28	1734	17	0.18690127876519
28	2002	18	0.070195846178104
28	2270	19	-0.024210756234826
28	2623	20	-0.0601773593924
28	2976	21	0.048564056027681
28	3329	22	0.011783511678223
28	3779	23	-0.01175240018638
28	4229	24	-0.050563721174839
28	4679	25	0.048220558664761
28	5238	26	-0.0096335629350506
28	5797	27	-0.024012844695244
28	6356	28	0.055875538496766
28	7036	29	0.002942794724369
28	7756	30	-0.026912715847139
28	8444	31	0.046501222748775
28	9201	32	-0.0068584024137817
28	9897	33	-0.024026391040534
28	11109	34	-0.065887177453842
28	11894	35	0.012115841396154
28	12590	36	-0.0095325147244161
28	13326	37	0.027601763862185
28	14022	38	-0.015595301878637
28	14726	39	0.03150903925998
28	15430	40	-0.015139036239123
28	16134	41	-0.0020219698059378
28	16846	42	-0.029175507295877
28	17558	43	0.10444236988667
28	18270	44	-0.032537149167618
28	18990	45	0.017950264150276
28	19710	46	0.033166662419681
28	20430	47	-0.077345745195634
28	21158	48	0.016300446074455
28	21886	49	-0.020226153281982
28	22614	50	-0.038481089416893
28	23350	51	0.067661192361266
28	24086	52	-0.061777307696175
28	24822	53	0.017927636592649
28	25566	54	0.01502577168867
28	26318	55	0.058837532082107
28	27062	56	-0.096772047183476
28	27822	57	0.043811571006664
28	28582	58	0.067592527624219
28	29342	59	-0.048466903034132
28	30102	60	-0.059411599775776
28	30862	61	-0.002131118667311
28	31622	62	0.11015376823954
28	32382	63	-0.010129201258533
28	33142	64	-0.044540612713899
28	33902	65	0.0072755006467915
28	34662	66	0.0025171279278595
28	35422	67	-0.028778033975978
28	36182	68	-0.018778679310344
28	36942	69	0.062464207622689
28	37702	70	-0.01955034396844
28	38462	71	-0.026707129769493
28	39222	72	-0.016484493969473
28	39982	73	0.094344020874704
28	40742	74	0.00049914305331278
28	41502	75	0.011113116126507
28	42262	76	-0.041480471317191
28	43022	77	0.03084597240435
28	43782	78	-0.013670930974186
28	44542	79	-0.092507310046349
28	45302	80	0.054937927257271
28	46047	81	-0.061118480355946
28	46799	82	0.062330115339719
28	47551	83	0.045763468826189
28	48295	84	-0.038225170618389
28	49039	85	-0.067732784284743
28	49783	86	0.10572762786644
28	50519	87	-1.8513353948729
28	51255	88	-2.4231228020611
28	51991	89	-2.4472817669452
28	52719	90	-2.1749490087823
28	53447	91	-1.8827476067027
28	54175	92	-1.434821497956
28	54959	93	-0.99338003235665
28	55679	94	-0.33251532893731
28	57004	95	-0.44370071726938
28	57716	96	-5.9810992391318e-08
28	58648	97	-7.1737226486563e-18
29	747	12	4.3479287070716
29	881	13	5.5165352628411
29	1076	14	6.1406935669702
29	1271	15	7.2445020940405
29	1466	16	8.3437597808429
29	1734	17	2.6532937628312
29	2002	18	2.270963778215
29	2270	19	1.951004715823
29	2623	20	1.8249511816193
29	2976	21	2.1941071389215
29	3329	22	2.0719137351531
29	3779	23	1.991698821298
29	4229	24	1.8569243370768
29	4679	25	2.1926918025389
29	5238	26	1.9976163105569
29	5797	27	1.9470980573295
29	6356	28	2.2209439676854
29	7036	29	2.0433595908944
29	7756	30	1.9404334490117
29	8444	31	2.1919959831279
29	9201	32	2.0116944897956
29	9897	33	1.9516191426344
29	11109	34	1.8053632733857
29	11894	35	2.0673728358858
29	12590	36	1.9939982449559
29	13326	37	2.1211415301372
29	14022	38	1.9749032017392
29	14726	39	2.1359725907587
29	15430	40	1.9780356051768
29	16134	41	2.0217754863138
29	16846	42	1.9280580758302
29	17558	43	2.3879766982349
29	18270	44	1.9235795909767
29	18990	45	2.0951292715838
29	19710	46	2.1499828390407
29	20430	47	1.7708359110214
29	21158	48	2.0866216948363
29	21886	49	1.9620160320752
29	22614	50	1.8972543062301
29	23350	51	2.2601310100001
29	24086	52	1.8198744895029
29	24822	53	2.0883786033782
29	25566	54	2.080244026579
29	26318	55	2.2339790598848
29	27062	56	1.7024313243233
29	27822	57	2.1774186330433
29	28582	58	2.2651936833572
29	29342	59	1.8696219844358
29	30102	60	1.8276604317652
29	30862	61	2.0190212678039
29	31622	62	2.4086661525028
29	32382	63	2.0022322019244
29	33142	64	1.8822565448504
29	33902	65	2.0569785787512
29	34662	66	2.0412530361964
29	35422	67	1.933373709173
29	36182	68	1.9650728661774
29	36942	69	2.244407450616
29	37702	70	1.9666598147209
29	38462	71	1.9400716154848
29	39222	72	1.9727273025243
29	39982	73	2.3555827567524
29	40742	74	2.0392869453989
29	41502	75	2.0762364101761
29	42262	76	1.8949660016788
29	43022	77	2.141641042379
29	43782	78	1.9902109281198
29	44542	79	1.7173242514535
29	45302	80	2.2169408833447
29	46047	81	1.8218017657367
29	46799	82	2.2419119654598
29	47551	83	2.1914467715381
29	48295	84	1.904833440273
29	49039	85	1.7998649184771
29	49783	86	2.3935063818597
29	50519	87	0.973
29	51255	88	0.973
29	51991	89	0.973
29	52719	90	0.973
29	53447	91	0.973
29	54175	92	0.973
29	54959	93	0.973
29	55679	94	0.973
29	57004	95	0.973
29	57716	96	1.11
29	58648	97	1.11
32	881	13	6544.7430498517
32	1076	14	6544.7430498517
32	1271	15	6542.8786544729
32	1466	16	6539.8417355186
32	1734	17	6535.5772621631
32	2002	18	6530.1853358183
32	2270	19	6523.6347191901
32	2623	20	6515.920450262
32	2976	21	6506.7955573436
32	3329	22	6497.4704456749
32	3779	23	6487.5033512161
32	4229	24	6477.2521637211
32	4679	25	6466.5218427154
32	5238	26	6455.6697431643
32	5797	27	6444.7417939395
32	6356	28	6433.3612257679
32	7036	29	6421.9550282544
32	7756	30	6410.4393649627
32	8444	31	6398.8501967189
32	9201	32	6387.2191750113
32	9897	33	6375.1391066759
32	11109	34	6363.0335257827
32	11894	35	6350.9511059226
32	12590	36	6338.9160429293
32	13326	37	6327.1017651925
32	14022	38	6315.3024129353
32	14726	39	6303.4963387895
32	15430	40	6292.2477679951
32	16134	41	6281.5009764346
32	16846	42	6271.0070867382
32	17558	43	6262.3757430885
32	18270	44	6253.7545521728
32	18990	45	6245.1214954622
32	19710	46	6236.600598785
32	20430	47	6228.7488394878
32	21158	48	6220.9039794965
32	21886	49	6213.7192759628
32	22614	50	6206.9138852643
32	23350	51	6200.1177545014
32	24086	52	6193.3124901777
32	24822	53	6186.5126224813
32	25566	54	6179.7124604512
32	26318	55	6172.9035630376
32	27062	56	6166.0955082177
32	27822	57	6159.2916553735
32	28582	58	6152.4829652827
32	29342	59	6145.6834769695
32	30102	60	6138.8837526891
32	30862	61	6132.149965795
32	31622	62	6125.5549940384
32	32382	63	6118.9606170341
32	33142	64	6112.3665879551
32	33902	65	6105.7778455852
32	34662	66	6099.1843584645
32	35422	67	6092.6372653918
32	36182	68	6083.2202350238
32	36942	69	6076.7129840515
32	37702	70	6070.2159455509
32	38462	71	6063.7155066712
32	39222	72	6057.1644432729
32	39982	73	6047.3640538838
32	40742	74	6043.8259111311
32	41502	75	6037.3756998937
32	42262	76	6030.9238943423
32	43022	77	6024.4798883885
32	43782	78	6018.034973908
32	44542	79	6011.5899787497
32	45302	80	6005.1553034008
32	46047	81	5998.7135185501
32	46799	82	5992.2610096628
32	47551	83	5988.7427464705
32	48295	84	5982.3010960957
32	49039	85	5975.8610598711
32	49783	86	5969.4187394109
32	50519	87	5962.9685956462
32	51255	88	5956.5287445031
32	51991	89	5950.018438927
32	52719	90	5943.4875550434
32	53447	91	5937.7701685188
32	54175	92	5933.1910521308
32	54959	93	5929.709207329
32	55679	94	5926.2162681728
32	57004	95	5921.9021953322
32	57716	96	5916.6982202184
32	58648	97	5910.4737827273
33	881	13	6531.1053860569
33	1076	14	6531.1053860569
33	1271	15	6528.5664154057
33	1466	16	6524.4306788648
33	1734	17	6518.6232343629
33	2002	18	6511.2804019905
33	2270	19	6502.3596421801
33	2623	20	6491.8541975594
33	2976	21	6481.2919144179
33	3329	22	6470.8817897561
33	3779	23	6461.1299910378
33	4229	24	6451.6390997698
33	4679	25	6442.6696629366
33	5238	26	6433.8629852904
33	5797	27	6425.1415503234
33	6356	28	6417.059591564
33	7036	29	6408.9594320187
33	7756	30	6400.9855970048
33	8444	31	6393.275411985
33	9201	32	6385.6253911894
33	9897	33	6378.7431819106
33	11109	34	6371.8464377172
33	11894	35	6364.962888737
33	12590	36	6358.0192469679
33	13326	37	6350.673929939
33	14022	38	6343.3378925615
33	14726	39	6335.9976759694
33	15430	40	6327.9135049369
33	16134	41	6319.4062737073
33	16846	42	6311.9817830068
33	17558	43	6301.0564834956
33	18270	44	6290.144035015
33	18990	45	6279.2165671621
33	19710	46	6268.2118428877
33	20430	47	6256.693272142
33	21158	48	6245.1848227132
33	21886	49	6233.2821792715
33	22614	50	6221.1272613271
33	23350	51	6208.9888822945
33	24086	52	6196.8341900646
33	24822	53	6184.6891365997
33	25566	54	6172.5435574337
33	26318	55	6160.3823762434
33	27062	56	6148.2226999862
33	27822	57	6136.0705287603
33	28582	58	6123.9097178636
33	29342	59	6111.7653420045
33	30102	60	6099.6205446908
33	30862	61	6087.4474507559
33	31622	62	6075.1818503961
33	32382	63	6062.9173561812
33	33142	64	6050.653509052
33	33902	65	6038.3994943625
33	34662	66	6026.1366551897
33	35422	67	6013.8303901845
33	36182	68	6003.0978826037
33	36942	69	5990.8062136061
33	37702	70	5978.5338351387
33	38462	71	5966.2550336313
33	39222	72	5953.9910217636
33	39982	73	5945.033513346
33	40742	74	5931.1682298421
33	41502	75	5918.8063961493
33	42262	76	5906.441506953
33	43022	77	5894.0915656899
33	43782	78	5881.7398832349
33	44542	79	5869.3880461611
33	45302	80	5857.0559870079
33	46047	81	5844.7103024904
33	46799	82	5832.3440653502
33	47551	83	5818.455965087
33	48295	84	5806.1105382926
33	49039	85	5793.768205018
33	49783	86	5781.4214940045
33	50519	87	5769.0597896232
33	51255	88	5756.7178110575
33	51991	89	5744.3610905202
33	52719	90	5732.1471300984
33	53447	91	5721.4545601536
33	54175	92	5712.8907658301
33	54959	93	5706.3790722582
33	55679	94	5699.8358167585
33	57004	95	5691.6336287287
33	57716	96	5681.7269788562
33	58648	97	5670.1570154144
34	1076	14	4.0668918506048
34	1271	15	6.0224023501497
34	1466	16	8.0848959853818
34	1734	17	9.8798344719774
34	2002	18	11.975351820147
34	2270	19	13.83696766369
34	2623	20	13.888496056341
34	2976	21	13.967085145169
34	3329	22	13.876376160912
34	3779	23	13.928229824884
34	4229	24	13.972732506306
34	4679	25	13.941968726097
34	5238	26	13.894302998006
34	5797	27	13.907210306888
34	6356	28	13.931329568063
34	7036	29	13.951023635285
34	7756	30	13.94760661962
34	8444	31	13.966600835638
34	9201	32	13.955495491785
34	9897	33	13.905122406574
34	11109	34	13.968321876277
34	11894	35	13.874482837149
34	12590	36	13.995429191983
34	13326	37	13.943380900123
34	14022	38	13.98071073873
34	14726	39	13.95331737844
34	15430	40	13.87434523605
34	16134	41	13.963861307737
34	16846	42	13.982800261439
34	17558	43	13.897877845557
34	18270	44	13.897316963898
34	18990	45	13.970242012145
34	19710	46	13.999359213558
34	20430	47	13.909604959053
34	21158	48	13.884999133018
34	21886	49	13.890563954392
34	22614	50	13.998268904851
34	23350	51	13.887522510195
34	24086	52	13.911131804818
34	24822	53	13.978930512681
34	25566	54	13.905588372739
34	26318	55	13.981283050789
34	27062	56	13.893339919134
34	27822	57	13.945234458565
34	28582	58	13.966593190217
34	29342	59	13.87479779474
34	30102	60	13.934335252454
34	30862	61	13.969812731624
34	31622	62	13.974925508471
34	32382	63	13.950863058607
34	33142	64	13.934910027208
34	33902	65	13.945255600964
34	34662	66	13.942483380372
34	35422	67	13.951400726296
34	36182	68	13.920384717772
34	36942	69	13.952591652924
34	37702	70	13.948950000089
34	38462	71	13.888017233335
34	39222	72	13.996722678163
34	39982	73	13.882349903381
34	40742	74	13.874732072081
34	41502	75	13.902815072155
34	42262	76	13.922572644027
34	43022	77	13.883797204795
34	43782	78	13.900844628052
34	44542	79	13.996377716162
34	45302	80	13.967216174908
34	46047	81	13.876654796135
34	46799	82	13.968893160799
34	47551	83	13.931606074509
34	48295	84	13.875714435442
34	49039	85	13.909340409641
34	49783	86	13.934568100814
34	50519	87	13.974537035488
34	51255	88	13.897020593847
34	51991	89	13.490780770043
34	52719	90	11.052147967213
34	53447	91	8.6104994971851
34	54175	92	6.4061230830445
34	54959	93	8.1914018763547
34	55679	94	10.19187971936
34	57004	95	11.966533830724
34	57716	96	13.904245462725
34	58648	97	13.974252138031
35	1271	15	1.9555104995449
35	1466	16	2.0624936352321
35	1734	17	1.7949384865956
35	2002	18	2.0955173481698
35	2270	19	1.8616158435424
35	2623	20	0.051528392651477
35	2976	21	0.078589088828302
35	3329	22	-0.090708984257653
35	3779	23	0.05185366397258
35	4229	24	0.04450268142158
35	4679	25	-0.030763780209234
35	5238	26	-0.047665728090797
35	5797	27	0.012907308882568
35	6356	28	0.024119261174928
35	7036	29	0.019694067221135
35	7756	30	-0.0034170156647448
35	8444	31	0.018994216017891
35	9201	32	-0.011105343853123
35	9897	33	-0.050373085211032
35	11109	34	0.06319946970325
35	11894	35	-0.093839039127342
35	12590	36	0.12094635483343
35	13326	37	-0.052048291859684
35	14022	38	0.03732983860653
35	14726	39	-0.027393360289279
35	15430	40	-0.078972142389976
35	16134	41	0.089516071686521
35	16846	42	0.018938953701872
35	17558	43	-0.084922415881882
35	18270	44	-0.00056088165845836
35	18990	45	0.072925048246981
35	19710	46	0.029117201413028
35	20430	47	-0.089754254505969
35	21158	48	-0.024605826034676
35	21886	49	0.0055648213741364
35	22614	50	0.1077049504593
35	23350	51	-0.1107463946566
35	24086	52	0.023609294623602
35	24822	53	0.067798707862384
35	25566	54	-0.073342139942104
35	26318	55	0.075694678050931
35	27062	56	-0.087943131655921
35	27822	57	0.051894539431668
35	28582	58	0.021358731652144
35	29342	59	-0.091795395477675
35	30102	60	0.059537457714324
35	30862	61	0.035477479170076
35	31622	62	0.0051127768470902
35	32382	63	-0.024062449864577
35	33142	64	-0.015953031398823
35	33902	65	0.010345573755913
35	34662	66	-0.0027722205920142
35	35422	67	0.0089173459238374
35	36182	68	-0.031016008523293
35	36942	69	0.03220693515148
35	37702	70	-0.0036416528350678
35	38462	71	-0.060932766753249
35	39222	72	0.10870544482721
35	39982	73	-0.11437277478166
35	40742	74	-0.0076178313000135
35	41502	75	0.028083000073675
35	42262	76	0.019757571872324
35	43022	77	-0.038775439232122
35	43782	78	0.017047423257027
35	44542	79	0.095533088110386
35	45302	80	-0.029161541254725
35	46047	81	-0.090561378772836
35	46799	82	0.092238364664372
35	47551	83	-0.037287086290307
35	48295	84	-0.055891639066393
35	49039	85	0.033625974198802
35	49783	86	0.025227691172622
35	50519	87	0.039968934673817
35	51255	88	-0.07751644164091
35	51991	89	-0.40623982380397
35	52719	90	-2.4386328028295
35	53447	91	-2.4416484700281
35	54175	92	-2.2043764141407
35	54959	93	1.7852787933103
35	55679	94	2.0004778430052
35	57004	95	1.7746541113639
35	57716	96	1.9377116320011
35	58648	97	0.070006675305777
36	1271	15	4.2589247872317
36	1466	16	5.5675213924165
36	1734	17	5.9495122529395
36	2002	18	7.894128398899
36	2270	19	8.2301774682404
36	2623	20	2.1999321521531
36	2976	21	2.3000123188032
36	3329	22	1.7228784692314
36	3779	23	2.2055643056606
36	4229	24	2.1859136079585
36	4679	25	1.9295423315968
36	5238	26	1.8684407491794
36	5797	27	2.0726252036789
36	6356	28	2.1128023809164
36	7036	29	2.1000493140129
36	7756	30	2.0219990179413
36	8444	31	2.0993601903664
36	9201	32	1.9969406763657
36	9897	33	1.8603449797698
36	11109	34	2.2483551865115
36	11894	35	1.7122613818701
36	12590	36	2.44631872224
36	13326	37	1.8581525547646
36	14022	38	2.1626481463382
36	14726	39	1.9419513716143
36	15430	40	1.7619612134004
36	16134	41	2.3363939616771
36	16846	42	2.1009063350531
36	17558	43	1.7439763196658
36	18270	44	2.0264788739012
36	18990	45	2.2813252551575
36	19710	46	2.1370188710482
36	20430	47	1.7287329371473
36	21158	48	1.9447663686292
36	21886	49	2.0462993051955
36	22614	50	2.4020216883354
36	23350	51	1.6567047217322
36	24086	52	2.1089161241564
36	24822	53	2.2650970829746
36	25566	54	1.7834117997255
36	26318	55	2.291981819182
36	27062	56	1.7334932050242
36	27822	57	2.2076498274351
36	28582	58	2.1073182121803
36	29342	59	1.7191198450152
36	30102	60	2.2320670436148
36	30862	61	2.1551981217592
36	31622	62	2.0534980882
36	32382	63	1.952915820498
36	33142	64	1.9786132332102
36	33902	65	2.068014213168
36	34662	66	2.0236465849729
36	35422	67	2.0638551991535
36	36182	68	1.9266540471376
36	36942	69	2.1422924365834
36	37702	70	2.0213799868685
36	38462	71	1.8234686447014
36	39222	72	2.4051978817858
36	39982	73	1.6441842959055
36	40742	74	2.0005884391415
36	41502	75	2.1230113339441
36	42262	76	2.0972233799703
36	43022	77	1.8972398448119
36	43782	78	2.0858270822859
36	44542	79	2.3607214423331
36	45302	80	1.937328906644
36	46047	81	1.7233943218538
36	46799	82	2.3461818733367
36	47551	83	1.9066593402057
36	48295	84	1.8392565480041
36	49039	85	2.1423008747404
36	49783	86	2.1168740285364
36	50519	87	2.1708486234192
36	51255	88	1.7687105807767
36	51991	89	0.973
36	52719	90	0.973
36	53447	91	0.973
36	54175	92	0.973
36	54959	93	5.0802965194085
36	55679	94	6.6131152593139
36	57004	95	6.9635509500048
36	57716	96	8.5221854499341
36	58648	97	2.2719776626209
39	1466	16	6544.7425149587
39	1734	17	6544.7425149587
39	2002	18	6542.7724965708
39	2270	19	6539.6641703634
39	2623	20	6535.4120903132
39	2976	21	6529.9964330766
39	3329	22	6523.4476610441
39	3779	23	6515.7447484907
39	4229	24	6506.5917120625
39	4679	25	6497.2707333408
39	5238	26	6487.2761759177
39	5797	27	6477.0179928191
39	6356	28	6466.2808347432
39	7036	29	6455.4294443625
39	7756	30	6444.5076425036
39	8444	31	6433.107648786
39	9201	32	6421.7114079703
39	9897	33	6410.2087160613
39	11109	34	6398.6374827168
39	11894	35	6387.0298369626
39	12590	36	6374.9355618488
39	13326	37	6362.8462125069
39	14022	38	6350.7618488104
39	14726	39	6338.7426124467
39	15430	40	6326.9293879053
39	16134	41	6315.1216776776
39	16846	42	6303.322265467
39	17558	43	6292.0710398309
39	18270	44	6281.2786761949
39	18990	45	6270.8702533297
39	19710	46	6262.2450745488
39	20430	47	6253.6003534822
39	21158	48	6244.976857824
39	21886	49	6236.4698432541
39	22614	50	6228.6235753375
39	23350	51	6220.7771153432
39	24086	52	6213.5972429151
39	24822	53	6206.7970694524
39	25566	54	6200.0040352663
39	26318	55	6193.1946840147
39	27062	56	6186.3923705451
39	27822	57	6179.5869701207
39	28582	58	6172.7816865939
39	29342	59	6165.979825447
39	30102	60	6159.1863389396
39	30862	61	6152.3787289838
39	31622	62	6145.5798042958
39	32382	63	6138.7766022092
39	33142	64	6132.052367184
39	33902	65	6125.4586267729
39	34662	66	6118.8688833576
39	35422	67	6112.2765880924
39	36182	68	6105.6756668377
39	36942	69	6099.0839194911
39	37702	70	6092.529548093
39	38462	71	6083.1271233446
39	39222	72	6076.6069522818
39	39982	73	6070.1013907625
39	40742	74	6063.5923592331
39	41502	75	6057.0221356911
39	42262	76	6050.1482267156
39	43022	77	6043.6964930084
39	43782	78	6037.2403882272
39	44542	79	6030.797652537
39	45302	80	6024.3458881024
39	46047	81	6017.913730781
39	46799	82	6011.4673756911
39	47551	83	6005.0236217167
39	48295	84	5998.5781545479
39	49039	85	5992.1306761328
39	49783	86	5988.6126035665
39	50519	87	5982.1745584471
39	51255	88	5975.7258239034
39	51991	89	5969.2729113104
39	52719	90	5962.8190635153
39	53447	91	5956.3832927297
39	54175	92	5949.8719809517
39	54959	93	5943.5391524335
39	55679	94	5937.8851401603
39	57004	95	5932.2775962773
39	57716	96	5926.3947105693
39	58648	97	5920.1184340366
40	1466	16	6531.1046576289
40	1734	17	6531.1046576289
40	2002	18	6528.4218474665
40	2270	19	6524.1888671103
40	2623	20	6518.3983000577
40	2976	21	6511.0231504855
40	3329	22	6502.1049026822
40	3779	23	6491.614923398
40	4229	24	6481.064350946
40	4679	25	6470.6588401156
40	5238	26	6460.914307097
40	5797	27	6451.42367136
40	6356	28	6442.4740805507
40	7036	29	6433.6679784094
40	7756	30	6424.975266688
40	8444	31	6416.8795127947
40	9201	32	6408.7864240406
40	9897	33	6400.8321480543
40	11109	34	6393.1338949859
40	11894	35	6385.5175222569
40	12590	36	6378.6272191479
40	13326	37	6371.7397223304
40	14022	38	6364.8550659153
40	14726	39	6357.9114196503
40	15430	40	6350.5667574269
40	16134	41	6343.22552363
40	16846	42	6335.8894489775
40	17558	43	6327.7593432097
40	18270	44	6319.3787070639
40	18990	45	6311.8085833253
40	19710	46	6300.8910871228
40	20430	47	6289.9488548731
40	21158	48	6279.0334891174
40	21886	49	6268.0200238601
40	22614	50	6256.5095089976
40	23350	51	6244.9987123563
40	24086	52	6233.0642194588
40	24822	53	6220.9186198734
40	25566	54	6208.78577155
40	26318	55	6196.6237797724
40	27062	56	6184.4743579806
40	27822	57	6172.3194226649
40	28582	58	6160.1646961368
40	29342	59	6148.0160822257
40	30102	60	6135.8824260239
40	30862	61	6123.7235443261
40	31622	62	6111.5801751422
40	32382	63	6099.4291662162
40	33142	64	6087.2659328355
40	33902	65	6075.0026225829
40	34662	66	6062.7467461077
40	35422	67	6050.486123597
40	36182	68	6038.2094581153
40	36942	69	6025.9498546461
40	37702	70	6013.6269241757
40	38462	71	6002.922002198
40	39222	72	5990.605928198
40	39982	73	5978.31745044
40	40742	74	5966.0224181146
40	41502	75	5953.7772398782
40	42262	76	5943.2849514396
40	43022	77	5930.9201999327
40	43782	78	5918.5470712597
40	44542	79	5906.1995644576
40	45302	80	5893.8347540615
40	46047	81	5881.5075207096
40	46799	82	5869.1530773259
40	47551	83	5856.8036189816
40	48295	84	5844.4508772991
40	49039	85	5832.0942810621
40	49783	86	5818.2065461338
40	50519	87	5805.8680288134
40	51255	88	5793.509025205
40	51991	89	5781.1420143627
40	52719	90	5768.7732112049
40	53447	91	5756.4390526469
40	54175	92	5744.0871870265
40	54959	93	5732.2436267584
40	55679	94	5721.6695783815
40	57004	95	5711.1824344863
40	57716	96	5700.173445178
40	58648	97	5688.2379363541
41	1734	17	4.2377729746926
41	2002	18	6.0779207158269
41	2270	19	8.1167926897242
41	2623	20	9.9061947688943
41	2976	21	11.924356304041
41	3329	22	13.843190167741
41	3779	23	13.873152280438
41	4229	24	13.910183815444
41	4679	25	13.969054342322
41	5238	26	13.965329406161
41	5797	27	13.94804324161
41	6356	28	13.960779979175
41	7036	29	13.883605135188
41	7756	30	13.952208597364
41	8444	31	13.973868663169
41	9201	32	13.871462629787
41	9897	33	13.990594451961
41	11109	34	13.898065134608
41	11894	35	13.91534041676
41	12590	36	13.956911250236
41	13326	37	13.890487764005
41	14022	38	13.883245574636
41	14726	39	13.967944983249
41	15430	40	13.896946612659
41	16134	41	13.896351927656
41	16846	42	13.989562971592
41	17558	43	13.911873654453
41	18270	44	13.983906560359
41	18990	45	13.875597592853
41	19710	46	13.976389088612
41	20430	47	13.983553427667
41	21158	48	13.920907787334
41	21886	49	13.878113219852
41	22614	50	13.939454897621
41	23350	51	13.897115278668
41	24086	52	13.969470067539
41	24822	53	13.893283002006
41	25566	54	13.975017477619
41	26318	55	13.962092431849
41	27062	56	13.982081930542
41	27822	57	13.984343808836
41	28582	58	13.96369978585
41	29342	59	13.896659578858
41	30102	60	13.985239752624
41	30862	61	13.901525826307
41	31622	62	13.909102028203
41	32382	63	13.925193734912
41	33142	64	13.875448186484
41	33902	65	13.961739177813
41	34662	66	13.877658262849
41	35422	67	13.890774248654
41	36182	68	13.93453229273
41	36942	69	13.9655947097
41	37702	70	13.969732841703
41	38462	71	13.97415469286
41	39222	72	13.977909273938
41	39982	73	13.979932751877
41	40742	74	13.983263262582
41	41502	75	13.920672302633
41	42262	76	13.984459325385
41	43022	77	13.948885478494
41	43782	78	13.905306009802
41	44542	79	13.903095134392
41	45302	80	13.978439025036
41	46047	81	13.951440085631
41	46799	82	13.8817336344
41	47551	83	13.878776926755
41	48295	84	13.891324605318
41	49039	85	13.886454262368
41	49783	86	13.939640900041
41	50519	87	13.912822256028
41	51255	88	13.958154434205
41	51991	89	13.925422443398
41	52719	90	13.924485453984
41	53447	91	13.928865228347
41	54175	92	12.544880648301
41	54959	93	11.789071375331
41	55679	94	12.096256418917
41	57004	95	12.772567915337
41	57716	96	13.961929998593
41	58648	97	13.947210824629
42	2002	18	1.8401477411343
42	2270	19	2.0388719738973
42	2623	20	1.7894020791701
42	2976	21	2.0181615351466
42	3329	22	1.9188338637003
42	3779	23	0.029962112697012
42	4229	24	0.037031535005662
42	4679	25	0.058870526878163
42	5238	26	-0.0037249361607241
42	5797	27	-0.017286164551042
42	6356	28	0.012736737565136
42	7036	29	-0.07717484398745
42	7756	30	0.068603462176398
42	8444	31	0.021660065804609
42	9201	32	-0.10240603338229
42	9897	33	0.11913182217395
42	11109	34	-0.092529317352454
42	11894	35	0.017275282151532
42	12590	36	0.041570833476726
42	13326	37	-0.066423486231361
42	14022	38	-0.0072421893686982
42	14726	39	0.084699408612213
42	15430	40	-0.070998370589223
42	16134	41	-0.00059468500316129
42	16846	42	0.093211043935735
42	17558	43	-0.077689317138866
42	18270	44	0.072032905905507
42	18990	45	-0.10830896750558
42	19710	46	0.10079149575904
42	20430	47	0.007164339055306
42	21158	48	-0.062645640333647
42	21886	49	-0.042794567481616
42	22614	50	0.061341677769088
42	23350	51	-0.04233961895341
42	24086	52	0.072354788871015
42	24822	53	-0.07618706553243
42	25566	54	0.081734475612175
42	26318	55	-0.012925045769663
42	27062	56	0.019989498693031
42	27822	57	0.0022618782939396
42	28582	58	-0.020644022985362
42	29342	59	-0.067040206992534
42	30102	60	0.088580173766241
42	30862	61	-0.083713926316705
42	31622	62	0.0075762018957182
42	32382	63	0.01609170670854
42	33142	64	-0.049745548428037
42	33902	65	0.086290991329587
42	34662	66	-0.084080914964433
42	35422	67	0.013115985805634
42	36182	68	0.043758044075222
42	36942	69	0.031062416969798
42	37702	70	0.0041381320031366
42	38462	71	0.0044218511576766
42	39222	72	0.0037545810779545
42	39982	73	0.0020234779384918
42	40742	74	0.0033305107057107
42	41502	75	-0.062590959949885
42	42262	76	0.063787022752221
42	43022	77	-0.035573846891056
42	43782	78	-0.043579468692187
42	44542	79	-0.0022108754096557
42	45302	80	0.075343890644145
42	46047	81	-0.026998939404731
42	46799	82	-0.069706451231614
42	47551	83	-0.0029567076452075
42	48295	84	0.012547678563278
42	49039	85	-0.0048703429498715
42	49783	86	0.053186637673063
42	50519	87	-0.026818644013257
42	51255	88	0.045332178177778
42	51991	89	-0.032731990807225
42	52719	90	-0.00093698941403986
42	53447	91	0.0043797743623148
42	54175	92	-1.3839845800459
42	54959	93	-0.75580927296972
42	55679	94	0.30718504358603
42	57004	95	0.67631149641965
42	57716	96	1.1893620832568
42	58648	97	-0.014719173964114
43	2002	18	4.1193498521512
43	2270	19	5.53928735062
43	2623	20	5.9496842285492
43	2976	21	7.6415936888788
43	3329	22	8.4244909498383
43	3779	23	2.1260767572134
43	4229	24	2.1538102659923
43	4679	25	2.233867717554
43	5238	26	2.022759722383
43	5797	27	1.9754224166545
43	6356	28	2.0776846163068
43	7036	29	1.7687396701647
43	7756	30	2.2646329957739
43	8444	31	2.109114950859
43	9201	32	1.6833832447444
43	9897	33	2.4395640958278
43	11109	34	1.7185127348289
43	11894	35	2.0881271503554
43	12590	36	2.1742640177205
43	13326	37	1.8053028513594
43	14022	38	2.0026948299724
43	14726	39	2.3206855867101
43	15430	40	1.7905345241422
43	16134	41	2.0262675930116
43	16846	42	2.3520372666222
43	17558	43	1.7693658298625
43	18270	44	2.2799577712033
43	18990	45	1.6639617075942
43	19710	46	2.3759252820924
43	20430	47	2.0613060385953
43	21158	48	1.8205879832105
43	21886	49	1.8832727687823
43	22614	50	2.2387241786249
43	23350	51	1.8865328301018
43	24086	52	2.2793128396251
43	24822	53	1.7728512361608
43	25566	54	2.3115679045573
43	26318	55	1.9914744382857
43	27062	56	2.104369485336
43	27822	57	2.0448659604833
43	28582	58	1.965657516774
43	29342	59	1.8037664923812
43	30102	60	2.3358891058906
43	30862	61	1.7483217259964
43	31622	62	2.0549533874721
43	32382	63	2.0852005927217
43	33142	64	1.8597855067813
43	33902	65	2.3252794657689
43	34662	66	1.7451483954414
43	35422	67	2.0715998334586
43	36182	68	2.1790992005589
43	36942	69	2.1398707064466
43	37702	70	2.0496789079275
43	38462	71	2.0510913569604
43	39222	72	2.0492319088506
43	39982	73	2.0436085644852
43	40742	74	2.0483559430542
43	41502	75	1.8207509780093
43	42262	76	2.2522332638347
43	43022	77	1.9140275889387
43	43782	78	1.8831280696814
43	44542	79	2.0215376915646
43	45302	80	2.2904569676402
43	46047	81	1.9430980849847
43	46799	82	1.7935697279988
43	47551	83	2.016582454846
43	48295	84	2.0697549693056
43	49039	85	2.0109531587945
43	49783	86	2.2113494398375
43	50519	87	1.9400135799234
43	51255	88	2.1870564077079
43	51991	89	1.9213711657645
43	52719	90	2.027980702109
43	53447	91	2.0462740250574
43	54175	92	0.973
43	54959	93	0.973
43	55679	94	2.7525315420346
43	57004	95	4.0004528329565
43	57716	96	6.0369442779326
43	58648	97	1.9839692189646
46	2270	19	6544.741307063
46	2623	20	6544.741307063
46	2976	21	6542.852068304
46	3329	22	6539.7411422197
46	3779	23	6535.3352334211
46	4229	24	6529.8523296905
46	4679	25	6523.2514155798
46	5238	26	6515.5669738164
46	5797	27	6506.3936810087
46	6356	28	6497.0649787296
46	7036	29	6487.0388059774
46	7756	30	6476.7797405632
46	8444	31	6466.0397499671
46	9201	32	6455.1887097867
46	9897	33	6444.2363547501
46	11109	34	6432.8444506293
46	11894	35	6421.4428435539
46	12590	36	6409.9372826813
46	13326	37	6398.3768168298
46	14022	38	6386.7295490782
46	14726	39	6374.6478388833
46	15430	40	6362.5654885224
46	16134	41	6350.4882997085
46	16846	42	6338.4515480409
46	17558	43	6326.6351386472
46	18270	44	6314.84456993
46	18990	45	6303.0494123141
46	19710	46	6291.8419110965
46	20430	47	6281.0098938597
46	21158	48	6270.6988809565
46	21886	49	6262.05277044
46	22614	50	6253.4133351505
46	23350	51	6244.7853116316
46	24086	52	6236.3008660874
46	24822	53	6228.449605656
46	25566	54	6220.6006367851
46	26318	55	6213.4484863022
46	27062	56	6206.6546547732
46	27822	57	6199.8533487194
46	28582	58	6193.0599047345
46	29342	59	6186.2653573885
46	30102	60	6179.4628498456
46	30862	61	6172.6610488146
46	31622	62	6165.8576622972
46	32382	63	6159.0490764829
46	33142	64	6152.250335694
46	33902	65	6145.4466376047
46	34662	66	6138.6499047228
46	35422	67	6131.9240818785
46	36182	68	6125.3350032326
46	36942	69	6118.7451665949
46	37702	70	6112.144300102
46	38462	71	6105.5453007546
46	39222	72	6098.9540505735
46	39982	73	6092.414144622
46	40742	74	6082.9995685781
[...]
57	57716	96	1.9959262985931
57	58648	97	2.1086391311701
60	4679	25	6544.7461614363
60	5238	26	6544.7461614363
60	5797	27	6542.8937367106
60	6356	28	6539.9598563615
60	7036	29	6535.8518289439
60	7756	30	6530.5547942252
60	8444	31	6524.1604662123
60	9201	32	6516.6122174162
60	9897	33	6507.5911610749
60	11109	34	6498.2714348137
60	11894	35	6488.3705245004
60	12590	36	6478.1306176166
60	13326	37	6467.4699268587
60	14022	38	6456.6277850015
60	14726	39	6445.7622192919
60	15430	40	6434.3771093917
60	16134	41	6422.9866501715
60	16846	42	6411.5040909343
60	17558	43	6399.9314131889
60	18270	44	6388.3615285394
60	18990	45	6376.3074842465
60	19710	46	6364.2352396402
60	20430	47	6352.1482221361
60	21158	48	6340.0856135571
60	21886	49	6328.2787814223
60	22614	50	6316.4624798265
60	23350	51	6304.6592263963
60	24086	52	6293.2745749286
60	24822	53	6282.7937244803
60	25566	54	6271.8633859058
60	26318	55	6263.2295968591
60	27062	56	6254.5996369882
60	27822	57	6245.970242775
60	28582	58	6237.3698898647
60	29342	59	6229.5341621084
60	30102	60	6221.6910129681
60	30862	61	6214.400026367
60	31622	62	6207.6005124691
60	32382	63	6200.7930249279
60	33142	64	6193.9919591841
60	33902	65	6187.1957342293
60	34662	66	6180.387107113
60	35422	67	6173.58643558
60	36182	68	6166.7871551173
60	36942	69	6159.985605642
60	37702	70	6153.1915494701
60	38462	71	6146.3858553465
60	39222	72	6139.5798826682
60	39982	73	6132.8142646323
60	40742	74	6126.2199872086
60	41502	75	6119.6257716025
60	42262	76	6113.0369638127
60	43022	77	6106.4430381246
60	43782	78	6099.846076395
60	44542	79	6093.2905862791
60	45302	80	6083.8752930892
60	46047	81	6077.3777190912
60	46799	82	6070.8685961849
60	47551	83	6064.361671257
60	48295	84	6057.849096847
60	49039	85	6048.3691040028
60	49783	86	6044.4628669918
60	50519	87	6038.0129269942
60	51255	88	6031.5570122593
60	51991	89	6025.1096222105
60	52719	90	6018.6502550424
60	53447	91	6012.2062149535
60	54175	92	6005.7627339198
60	54959	93	5999.3102067001
60	55679	94	5992.8510203462
60	57004	95	5986.4058207193
60	57716	96	5979.958488758
60	58648	97	5973.5130149723
61	4679	25	6531.1096234746
61	5238	26	6531.1096234746
61	5797	27	6528.5869546966
61	6356	28	6524.5915381744
61	7036	29	6518.9971448575
61	7756	30	6511.7835377859
61	8444	31	6503.0756149156
61	9201	32	6492.7962598074
61	9897	33	6482.1800897362
61	11109	34	6471.775977095
61	11894	35	6461.9532995257
61	12590	36	6452.4472442669
61	13326	37	6443.4390505922
61	14022	38	6434.640453797
61	14726	39	6425.8662097157
61	15430	40	6417.7810256284
61	16134	41	6409.6920426989
61	16846	42	6401.6939510526
61	17558	43	6393.9947370354
61	18270	44	6386.2973812434
61	18990	45	6379.4088254099
61	19710	46	6372.5310734354
61	20430	47	6365.6449051034
61	21158	48	6358.7464067012
61	21886	49	6351.4057188429
61	22614	50	6344.0591435157
61	23350	51	6336.7206806533
61	24086	52	6328.8091987899
61	24822	53	6319.666649188
61	25566	54	6313.0656611672
61	26318	55	6302.1372663449
61	27062	56	6291.21371838
61	27822	57	6280.290886408
61	28582	58	6269.3403968065
61	29342	59	6257.8453444128
61	30102	60	6246.339404811
61	30862	61	6234.4980485244
61	31622	62	6222.353626969
61	32382	63	6210.1949639124
61	33142	64	6198.0477706486
61	33902	65	6185.9092233826
61	34662	66	6173.7485249629
61	35422	67	6161.6020357878
61	36182	68	6149.4580311646
61	36942	69	6137.3099739215
61	37702	70	6125.1753002579
61	38462	71	6113.0198403743
61	39222	72	6100.8638829722
61	39982	73	6088.6829411201
61	40742	74	6076.4186321092
61	41502	75	6064.1544380693
61	42262	76	6051.9003017092
61	43022	77	6039.6366468707
61	43782	78	6027.3673454771
61	44542	79	6015.0644407495
61	45302	80	6004.3352341287
61	46047	81	5992.0618441502
61	46799	82	5979.7666392212
61	47551	83	5967.475586095
61	48295	84	5955.1738615556
61	49039	85	5946.0226102884
61	49783	86	5932.3889561299
61	50519	87	5920.0276422684
61	51255	88	5907.6548778194
61	51991	89	5895.2984509363
61	52719	90	5882.919069897
61	53447	91	5870.569063214
61	54175	92	5858.2201279607
61	54959	93	5845.8538556866
61	55679	94	5833.4748211776
61	57004	95	5821.1225922394
61	57716	96	5808.7662766812
61	58648	97	5796.4135223174
62	5238	26	3.9869988851105
62	5797	27	5.8325715814456
62	6356	28	7.7940647162841
62	7036	29	9.7711788781238
62	7756	30	11.636033120572
62	8444	31	13.553041750791
62	9201	32	13.959105471838
62	9897	33	13.8857074664
62	11109	34	13.902078784353
62	11894	35	13.980236459947
62	12590	36	13.893872639823
62	13326	37	13.879950779546
62	14022	38	13.926199943209
62	14726	39	13.916980807327
62	15430	40	13.870749698819
62	16134	41	13.914203828578
62	16846	42	13.910889271128
62	17558	43	13.890413471179
62	18270	44	13.872694869458
62	18990	45	13.943431541577
62	19710	46	13.985410838739
62	20430	47	13.97834953066
62	21158	48	13.896321573076
62	21886	49	13.938015822924
62	22614	50	13.871418549917
62	23350	51	13.93253966168
62	24086	52	13.983130858496
62	24822	53	13.960354656435
62	25566	54	13.882473394
62	26318	55	13.907261846908
62	27062	56	13.957629888384
62	27822	57	13.913970732687
62	28582	58	13.897111015271
62	29342	59	13.965799758278
62	30102	60	13.968287693735
62	30862	61	13.965824146585
62	31622	62	13.955914605774
62	32382	63	13.911427053895
62	33142	64	13.962800811117
62	33902	65	13.947215150862
62	34662	66	13.941723320701
62	35422	67	13.945998655597
62	36182	68	13.936400685511
62	36942	69	13.971121810114
62	37702	70	13.984007821989
62	38462	71	13.974774468176
62	39222	72	13.90005961037
62	39982	73	13.889542532014
62	40742	74	13.960995856065
62	41502	75	13.946893814567
62	42262	76	13.96440689574
62	43022	77	13.927384206583
62	43782	78	13.982967270941
62	44542	79	13.87488842462
62	45302	80	13.889559306197
62	46047	81	13.907958538497
62	46799	82	13.996708199775
62	47551	83	13.940404275358
62	48295	84	13.911025523939
62	49039	85	13.967486856007
62	49783	86	13.874684211256
62	50519	87	13.936365362441
62	51255	88	13.906069209927
62	51991	89	13.974432073112
62	52719	90	13.956195027838
62	53447	91	13.929692682619
62	54175	92	13.983116864124
62	54959	93	13.982753945552
62	55679	94	13.886376253057
62	57004	95	13.88263579732
62	57716	96	13.929874649046
62	58648	97	13.949855419935
63	5797	27	1.8455726963351
63	6356	28	1.9614931348385
63	7036	29	1.9771141618397
63	7756	30	1.8648542424478
63	8444	31	1.9170086302189
63	9201	32	0.40606372104775
63	9897	33	-0.073398005438502
63	11109	34	0.016371317952871
63	11894	35	0.078157675594557
63	12590	36	-0.086363820123951
63	13326	37	-0.013921860277188
63	14022	38	0.046249163663015
63	14726	39	-0.0092191358818674
63	15430	40	-0.046231108508072
63	16134	41	0.043454129758757
63	16846	42	-0.0033145574503592
63	17558	43	-0.020475799948908
63	18270	44	-0.017718601720407
63	18990	45	0.070736672119237
63	19710	46	0.041979297162035
63	20430	47	-0.0070613080798658
63	21158	48	-0.082027957583778
63	21886	49	0.041694249848369
63	22614	50	-0.066597273007501
63	23350	51	0.061121111763642
63	24086	52	0.050591196815949
63	24822	53	-0.022776202061214
63	25566	54	-0.077881262435112
63	26318	55	0.024788452908396
63	27062	56	0.050368041475304
63	27822	57	-0.043659155697096
63	28582	58	-0.016859717415645
63	29342	59	0.068688743007369
63	30102	60	0.0024879354564469
63	30862	61	-0.0024635471496737
63	31622	62	-0.0099095408106216
63	32382	63	-0.044487551879138
63	33142	64	0.051373757221736
63	33902	65	-0.015585660254581
63	34662	66	-0.0054918301617732
63	35422	67	0.0042753348965192
63	36182	68	-0.0095979700866149
63	36942	69	0.034721124602948
63	37702	70	0.012886011875233
63	38462	71	-0.0092333538131779
63	39222	72	-0.074714857805521
63	39982	73	-0.010517078356351
63	40742	74	0.071453324051108
63	41502	75	-0.014102041497827
63	42262	76	0.017513081172947
63	43022	77	-0.037022689157165
63	43782	78	0.055583064358217
63	44542	79	-0.10807884632144
63	45302	80	0.014670881577768
63	46047	81	0.018399232299998
63	46799	82	0.08874966127798
63	47551	83	-0.056303924417589
63	48295	84	-0.029378751418554
63	49039	85	0.056461332067848
63	49783	86	-0.092802644751501
63	50519	87	0.061681151185185
63	51255	88	-0.030296152513474
63	51991	89	0.068362863184884
63	52719	90	-0.018237045274581
63	53447	91	-0.026502345218324
63	54175	92	0.053424181505106
63	54959	93	-0.00036291857249893
63	55679	94	-0.096377692495007
63	57004	95	-0.0037404557364074
63	57716	96	0.047238851725124
63	58648	97	0.019980770889671
64	5797	27	4.0039216517375
64	6356	28	5.2141333339964
64	7036	29	6.3233584860919
64	7756	30	7.0464448506767
64	8444	31	8.255267820048
64	9201	32	3.4007170368516
64	9897	33	1.7815533293437
64	11109	34	2.0836925620532
64	11894	35	2.3001539683257
64	12590	36	1.7388243149698
64	13326	37	1.9800217304862
64	14022	38	2.1865219966304
64	14726	39	1.9994390762609
64	15430	40	1.8711128179015
64	16134	41	2.1757927356551
64	16846	42	2.0186271684526
64	17558	43	1.959110483052
64	18270	44	1.9666151312504
64	18990	45	2.2707596323054
64	19710	46	2.1788427755721
64	20430	47	2.012841009482
64	21158	48	1.753543379411
64	21886	49	2.1725590723256
64	22614	50	1.8030889666254
64	23350	51	2.2371755529797
64	24086	52	2.2076076931919
64	24822	53	1.9581584712049
64	25566	54	1.7662822251409
64	26318	55	2.1124520505298
64	27062	56	2.2039366319472
64	27822	57	1.8836524427344
64	28582	58	1.9718698216465
64	29342	59	2.266534314622
64	30102	60	2.0439744499709
64	30862	61	2.0270554234762
64	31622	62	2.0010043292041
64	32382	63	1.8806427224737
64	33142	64	2.2079123983274
64	33902	65	1.9810571434994
64	34662	66	2.0144317161004
64	35422	67	2.0476899738313
64	36182	68	2.0001042097038
64	36942	69	2.1527965959352
64	37702	70	2.0806362402362
64	38462	71	2.0051658113803
64	39222	72	1.7783481672921
64	39982	73	1.9923618220289
64	40742	74	2.2752651805632
64	41502	75	1.9860122678527
64	42262	76	2.0941410822464
64	43022	77	1.9071540419328
64	43782	78	2.2244110128504
64	44542	79	1.6646776609689
64	45302	80	2.0766772543897
64	46047	81	2.0911116618966
64	46799	82	2.337881035668
64	47551	83	1.8435885704133
64	48295	84	1.9312592398097
64	49039	85	2.2255753587506
64	49783	86	1.7157427797029
64	50519	87	2.2395033084154
64	51255	88	1.9277149803686
64	51991	89	2.2664630234068
64	52719	90	1.9730232371586
64	53447	91	1.9426863053423
64	54175	92	2.2171530525434
64	54959	93	2.0358570870403
64	55679	94	1.7047052962419
64	57004	95	2.0143497113561
64	57716	96	2.1902602632712
64	58648	97	2.1008882804909
67	6356	28	6544.7439113052
67	7036	29	6544.7439113052
67	7756	30	6542.8576550847
67	8444	31	6539.8926188791
67	9201	32	6535.666400949
67	9897	33	6530.1974503056
67	11109	34	6523.6149798768
67	11894	35	6515.9353049251
67	12590	36	6506.7946675762
67	13326	37	6497.4624373611
67	14022	38	6487.4650691449
67	14726	39	6477.2192276662
67	15430	40	6466.4929829421
67	16134	41	6455.6210889336
67	16846	42	6444.694998962
67	17558	43	6433.3064610922
67	18270	44	6421.9127760447
67	18990	45	6410.3993110827
67	19710	46	6398.8109273182
67	20430	47	6387.1950495734
67	21158	48	6375.1158240125
67	21886	49	6363.0302974046
67	22614	50	6350.9574302258
67	23350	51	6338.9294335329
67	24086	52	6327.1166862291
67	24822	53	6315.3169561504
67	25566	54	6303.5026966257
67	26318	55	6292.253143166
67	27062	56	6281.5256672353
67	27822	57	6271.0275774061
67	28582	58	6262.3883967429
67	29342	59	6253.765270351
67	30102	60	6245.1422414698
67	30862	61	6236.6289383502
67	31622	62	6228.7866790921
67	32382	63	6220.9405621684
67	33142	64	6213.7585758431
67	33902	65	6206.9533074104
67	34662	66	6200.1432699502
67	35422	67	6193.3313360098
67	36182	68	6186.528118069
67	36942	69	6179.7290301367
67	37702	70	6172.9324561553
67	38462	71	6166.1311574174
67	39222	72	6159.3311139424
67	39982	73	6152.5318074846
67	40742	74	6145.7289354718
67	41502	75	6138.9243638149
67	42262	76	6132.175901876
67	43022	77	6125.5841926689
67	43782	78	6118.9971953468
67	44542	79	6112.4010007819
67	45302	80	6105.8091703039
67	46047	81	6099.219253089
67	46799	82	6092.6770789461
67	47551	83	6083.2645245389
67	48295	84	6076.7563093626
67	49039	85	6070.2496048201
67	49783	86	6063.7419866203
67	50519	87	6057.1975160177
67	51255	88	6047.4276856048
67	51991	89	6043.8714731521
67	52719	90	6037.4310222069
67	53447	91	6030.9884285868
67	54175	92	6024.5367533559
67	54959	93	6018.0968792758
67	55679	94	6011.6537911946
67	57004	95	6005.2146080675
67	57716	96	5998.7643603404
67	58648	97	5992.3237005965
68	6356	28	6531.1065592014
68	7036	29	6531.1065592014
68	7756	30	6528.5378180219
68	8444	31	6524.4999728357
68	9201	32	6518.7446253317
68	9897	33	6511.2968997399
68	11109	34	6502.3327607913
68	11894	35	6491.8744269345
68	12590	36	6481.2909211226
68	13326	37	6470.8728496438
68	14022	38	6461.0936454139
68	14726	39	6451.6087998398
68	15430	40	6442.6462427017
68	16134	41	6433.8235014906
68	16846	42	6425.1083186716
68	17558	43	6417.0207001972
68	18270	44	6408.9294264328
68	18990	45	6400.9589494647
68	19710	46	6393.249286353
68	20430	47	6385.6116465393
68	21158	48	6378.7299174027
68	21886	49	6371.8445984583
68	22614	50	6364.9664917943
68	23350	51	6358.0275723375
68	24086	52	6350.6832068281
68	24822	53	6343.3469345468
68	25566	54	6336.0016288409
68	26318	55	6327.9181937516
68	27062	56	6319.4093355236
68	27822	57	6312.0077194881
68	28582	58	6301.0725001172
68	29342	59	6290.1576017679
68	30102	60	6279.242826845
68	30862	61	6268.2534171736
68	31622	62	6256.7487830336
68	32382	63	6245.2384896786
68	33142	64	6233.3523716882
68	33902	65	6221.1976721194
68	34662	66	6209.0344547238
68	35422	67	6196.8678500781
68	36182	68	6184.7168128353
68	36942	69	6172.5731520853
68	37702	70	6160.4339814327
68	38462	71	6148.2863720246
68	39222	72	6136.1410046065
68	39982	73	6123.996953554
68	40742	74	6111.8465341637
68	41502	75	6099.6930790865
68	42262	76	6087.4956877485
68	43022	77	6075.2361552129
68	43782	78	6062.985386035
68	44542	79	6050.717511446
68	45302	80	6038.4577533657
68	46047	81	6026.2015536509
68	46799	82	6013.9055935649
68	47551	83	6003.1815419033
68	48295	84	5990.8880516027
68	49039	85	5978.5974147666
68	49783	86	5966.3050521062
68	50519	87	5954.040705369
68	51255	88	5945.0961350396
68	51991	89	5931.2555494825
68	52719	90	5918.9124213957
68	53447	91	5906.5651868712
68	54175	92	5894.200547434
68	54959	93	5881.8585249093
68	55679	94	5869.5103427497
68	57004	95	5857.1696444371
68	57716	96	5844.8077408118
68	58648	97	5832.4642125621
69	7036	29	3.9972887510035
69	7756	30	5.8983184305016
69	8444	31	8.0319075009643
69	9201	32	10.07225689643
69	9897	33	11.920937492652
69	11109	34	13.801483883599
69	11894	35	13.996072933245
69	12590	36	13.960067516514
69	13326	37	13.967919586927
69	14022	38	13.876375738613
69	14726	39	13.882612749068
69	15430	40	13.930797669301
69	16134	41	13.925938214532
69	16846	42	13.877396603092
69	17558	43	13.921008865419
69	18270	44	13.906969113464
69	18990	45	13.897608308163
69	19710	46	13.909412446504
69	20430	47	13.919650496305
69	21158	48	13.977145607504
69	21886	49	13.899401739407
69	22614	50	13.965382338841
69	23350	51	13.923620001134
69	24086	52	13.950541541793
69	24822	53	13.901464964899
69	25566	54	13.872451569957
69	26318	55	13.995166451326
69	27062	56	13.908525455047
69	27822	57	13.98168078396
69	28582	58	13.941177407075
69	29342	59	13.977065560492
69	30102	60	13.93827941726
69	30862	61	13.936352438405
69	31622	62	13.992891892744
69	32382	63	13.90021989808
69	33142	64	13.963461167838
69	33902	65	13.97020441147
69	34662	66	13.966312485088
69	35422	67	13.945453914613
69	36182	68	13.870366650675
69	36942	69	13.922404586133
69	37702	70	13.880063012352
69	38462	71	13.988704862299
69	39222	72	13.983388076245
69	39982	73	13.957000550898
69	40742	74	13.982315027826
69	41502	75	13.912704543234
69	42262	76	13.958342509952
69	43022	77	13.870476151009
69	43782	78	13.999578557343
69	44542	79	13.930430417594
69	45302	80	13.969076227255
69	46047	81	13.900515604052
69	46799	82	13.962491749367
69	47551	83	13.87582360755
69	48295	84	13.931558954976
69	49039	85	13.905874490056
69	49783	86	13.947066389958
69	50519	87	13.934325097909
69	51255	88	13.957681407579
69	51991	89	13.974321748884
69	52719	90	13.908551775722
69	53447	91	13.970890035934
69	54175	92	13.888331752645
69	54959	93	13.966079212462
69	55679	94	13.894538171431
69	57004	95	13.978850101545
69	57716	96	13.904448432892
69	58648	97	13.91009864382
70	7756	30	1.9010296794982
70	8444	31	2.1335890704626
70	9201	32	2.040349395466
70	9897	33	1.8486805962212
70	11109	34	1.8805463909474
70	11894	35	0.19458904964649
70	12590	36	-0.036005416731351
70	13326	37	0.0078520704130653
70	14022	38	-0.091543848314323
70	14726	39	0.0062370104552247
70	15430	40	0.048184920232742
70	16134	41	-0.0048594547691749
70	16846	42	-0.048541611440013
70	17558	43	0.043612262327224
70	18270	44	-0.014039751954844
70	18990	45	-0.0093608053005294
70	19710	46	0.011804138340521
70	20430	47	0.010238049800973
70	21158	48	0.057495111199097
70	21886	49	-0.077743868096732
70	22614	50	0.065980599434114
70	23350	51	-0.041762337707913
70	24086	52	0.026921540659385
70	24822	53	-0.049076576894148
70	25566	54	-0.029013394941577
70	26318	55	0.12271488136845
70	27062	56	-0.086640996278728
70	27822	57	0.073155328913126
70	28582	58	-0.040503376885317
70	29342	59	0.035888153417035
70	30102	60	-0.038786143232137
70	30862	61	-0.0019269788544616
70	31622	62	0.056539454339072
70	32382	63	-0.092671994664707
70	33142	64	0.063241269758437
70	33902	65	0.0067432436323713
70	34662	66	-0.0038919263822024
70	35422	67	-0.020858570474665
70	36182	68	-0.075087263938039
70	36942	69	0.052037935457193
70	37702	70	-0.042341573780869
70	38462	71	0.10864184994716
70	39222	72	-0.0053167860535908
70	39982	73	-0.026387525347527
70	40742	74	0.025314476927742
70	41502	75	-0.069610484591685
70	42262	76	0.04563796671806
70	43022	77	-0.087866358943284
70	43782	78	0.12910240633413
70	44542	79	-0.069148139748723
70	45302	80	0.038645809660666
70	46047	81	-0.068560623202938
70	46799	82	0.061976145314983
70	47551	83	-0.086668141817208
70	48295	84	0.055735347426962
70	49039	85	-0.025684464920777
70	49783	86	0.041191899902188
70	50519	87	-0.012741292049178
70	51255	88	0.02335630967049
70	51991	89	0.016640341305173
70	52719	90	-0.065769973162096
70	53447	91	0.062338260211982
70	54175	92	-0.082558283288963
70	54959	93	0.077747459816747
70	55679	94	-0.071541041031015
70	57004	95	0.084311930113472
70	57716	96	-0.074401668652426
70	58648	97	0.0056502109277048
71	7756	30	4.1157950387115
71	8444	31	5.6752918040364
71	9201	32	6.6430540683275
71	9897	33	7.152721676241
71	11109	34	8.2736339555405
71	11894	35	2.6948042413069
71	12590	36	1.9136226312175
71	13326	37	2.061993686858
71	14022	38	1.7200864777069
71	14726	39	2.0477290943816
71	15430	40	2.1935411944018
71	16134	41	2.0149641401041
71	16846	42	1.8639866250744
71	17558	43	2.1770881081942
71	18270	44	1.9822846720135
71	18990	45	1.9970346915141
71	19710	46	2.0691583274503
71	20430	47	2.0649770285684
71	21158	48	2.2301775809099
71	21886	49	1.768146607846
71	22614	50	2.257370023191
71	23350	51	1.8908994171215
71	24086	52	2.1242971143373
71	24822	53	1.8643606441377
71	25566	54	1.9288300174247
71	26318	55	2.4522490754789
71	27062	56	1.7390818346495
71	27822	57	2.283473255771
71	28582	58	1.896744071522
71	29342	59	2.1573858268566
71	30102	60	1.9022449009475
71	30862	61	2.0258636555107
71	31622	62	2.2287861077118
71	32382	63	1.7182060318442
71	33142	64	2.2479245946191
71	33902	65	2.0584985720801
71	34662	66	2.0222973335578
71	35422	67	1.9631623772677
71	36182	68	1.7746190288474
71	36942	69	2.2055157327058
71	37702	70	1.884966113503
71	38462	71	2.4039515907077
71	39222	72	2.0192274677921
71	39982	73	1.9456867819475
71	40742	74	2.1223382633593
71	41502	75	1.7965229410976
71	42262	76	2.188106351007
71	43022	77	1.73191040402
71	43782	78	2.4743828311032
71	44542	79	1.7995849553374
71	45302	80	2.1657827987243
71	46047	81	1.7990032063532
71	46799	82	2.243553581541
71	47551	83	1.7363472823044
71	48295	84	2.2189783082555
71	49039	85	1.9431517947301
71	49783	86	2.1718856830658
71	50519	87	1.9893413627899
71	51255	88	2.1130804277878
71	51991	89	2.0922582068219
71	52719	90	1.809042820915
71	53447	91	2.2457574056056
71	54175	92	1.7511135050725
71	54959	93	2.2970575837346
71	55679	94	1.788513491065
71	57004	95	2.3207189773001
71	57716	96	1.779765424054
71	58648	97	2.0486001574172
