version 2
run WithChannelSwitching-0-20180514-16:26:35-3544
attr configname WithChannelSwitching
attr datetime 20180514-16:26:35
attr experiment WithChannelSwitching
attr inifile omnetpp.ini
attr iterationvars $margin=25
attr iterationvars2 "$margin=25, $repetition=0"
attr margin 25
attr measurement $margin=25
attr network RSUExampleScenario3
attr processid 3544
attr repetition 0
attr replication #0
attr resultdir results
attr runnumber 0
attr seedset 0
param **.coreDebug false
param **.debug false
param *.**.nic.mac1609_4.bitrate 6Mbps
param *.**.nic.mac1609_4.txPower 20mW
param *.**.nic.mac1609_4.useServiceChannel false
param *.**.nic.phy80211p.analogueModels "xmldoc(\"config.xml\")"
param *.**.nic.phy80211p.antenna "xmldoc(\"antenna.xml\", \"/root/Antenna[@id='monopole']\")"
param *.**.nic.phy80211p.decider "xmldoc(\"config.xml\")"
param *.**.nic.phy80211p.sensitivity -89dBm
param *.**.nic.phy80211p.thermalNoise -110dBm
param *.**.nic.phy80211p.usePropagationDelay true
param *.**.nic.phy80211p.useThermalNoise true
param *.ambulanceNode[*].appl.beaconInterval 1s
param *.ambulanceNode[*].appl.dataOnSch false
param *.ambulanceNode[*].appl.headerLength "80 bit"
param *.ambulanceNode[*].appl.sendBeacons true
param *.ambulanceNode[*].applType "\"TraCIAmbulance11p\""
param *.ambulanceNode[*].veinsmobility.x 0
param *.ambulanceNode[*].veinsmobility.y 0
param *.ambulanceNode[*].veinsmobility.z 1.895
param *.ambulanceNode[*].veinsmobilityType.debug true
param *.annotations.draw true
param *.connectionManager.drawMaxIntfDist false
param *.connectionManager.maxInterfDist 2600m
param *.connectionManager.sendDirect true
param *.manager.autoShutdown true
param *.manager.host "\"localhost\""
param *.manager.launchConfig "xmldoc(\"Coruna.launchd.xml\")"
param *.manager.margin ${margin=25}
param *.manager.moduleName "\"vtype1=ambulanceNode *=node\""
param *.manager.moduleType "\"vtype1=veins_scenarios.src.veins.nodes.Ambulance *=veins_scenarios.src.veins.nodes.Car\""
param *.manager.port 9999
param *.manager.updateInterval 1s
param *.node[*].appl.beaconInterval 1s
param *.node[*].appl.dataOnSch false
param *.node[*].appl.headerLength "80 bit"
param *.node[*].appl.sendBeacons true
param *.node[*].applType "\"TraCI11p3\""
param *.node[*].veinsmobility.x 0
param *.node[*].veinsmobility.y 0
param *.node[*].veinsmobility.z 1.895
param *.node[*].veinsmobilityType.debug true
param *.playgroundSizeX 9999m
param *.playgroundSizeY 9999m
param *.playgroundSizeZ 50m
param *.rsu[*].appl.beaconInterval 1s
param *.rsu[*].appl.beaconPriority 3
param *.rsu[*].appl.dataOnSch false
param *.rsu[*].appl.dataPriority 2
param *.rsu[*].appl.headerLength "80 bit"
param *.rsu[*].appl.sendBeacons true
param *.rsu[*].applType "\"TraCIRSU11p3\""
param *.rsu[0].mobility.x "6074.3 + ${margin}"
param *.rsu[0].mobility.y "6001.1 + ${margin}"
param *.rsu[0].mobility.z 3

vector 4  RSUExampleScenario3.node[0].veinsmobility  posx  ETV
vector 5  RSUExampleScenario3.node[0].veinsmobility  posy  ETV
vector 6  RSUExampleScenario3.node[0].veinsmobility  speed  ETV
vector 7  RSUExampleScenario3.node[0].veinsmobility  acceleration  ETV
vector 8  RSUExampleScenario3.node[0].veinsmobility  co2emission  ETV
vector 11  RSUExampleScenario3.node[1].veinsmobility  posx  ETV
vector 12  RSUExampleScenario3.node[1].veinsmobility  posy  ETV
vector 13  RSUExampleScenario3.node[1].veinsmobility  speed  ETV
vector 14  RSUExampleScenario3.node[1].veinsmobility  acceleration  ETV
vector 15  RSUExampleScenario3.node[1].veinsmobility  co2emission  ETV
vector 18  RSUExampleScenario3.node[2].veinsmobility  posx  ETV
vector 19  RSUExampleScenario3.node[2].veinsmobility  posy  ETV
vector 20  RSUExampleScenario3.node[2].veinsmobility  speed  ETV
vector 21  RSUExampleScenario3.node[2].veinsmobility  acceleration  ETV
vector 22  RSUExampleScenario3.node[2].veinsmobility  co2emission  ETV
vector 25  RSUExampleScenario3.node[3].veinsmobility  posx  ETV
vector 26  RSUExampleScenario3.node[3].veinsmobility  posy  ETV
vector 27  RSUExampleScenario3.node[3].veinsmobility  speed  ETV
vector 28  RSUExampleScenario3.node[3].veinsmobility  acceleration  ETV
vector 29  RSUExampleScenario3.node[3].veinsmobility  co2emission  ETV
vector 32  RSUExampleScenario3.node[4].veinsmobility  posx  ETV
vector 33  RSUExampleScenario3.node[4].veinsmobility  posy  ETV
vector 34  RSUExampleScenario3.node[4].veinsmobility  speed  ETV
vector 35  RSUExampleScenario3.node[4].veinsmobility  acceleration  ETV
vector 36  RSUExampleScenario3.node[4].veinsmobility  co2emission  ETV
vector 39  RSUExampleScenario3.node[5].veinsmobility  posx  ETV
vector 40  RSUExampleScenario3.node[5].veinsmobility  posy  ETV
vector 41  RSUExampleScenario3.node[5].veinsmobility  speed  ETV
vector 42  RSUExampleScenario3.node[5].veinsmobility  acceleration  ETV
vector 43  RSUExampleScenario3.node[5].veinsmobility  co2emission  ETV
vector 46  RSUExampleScenario3.node[6].veinsmobility  posx  ETV
vector 47  RSUExampleScenario3.node[6].veinsmobility  posy  ETV
vector 48  RSUExampleScenario3.node[6].veinsmobility  speed  ETV
vector 49  RSUExampleScenario3.node[6].veinsmobility  acceleration  ETV
vector 50  RSUExampleScenario3.node[6].veinsmobility  co2emission  ETV
vector 53  RSUExampleScenario3.node[7].veinsmobility  posx  ETV
vector 54  RSUExampleScenario3.node[7].veinsmobility  posy  ETV
vector 55  RSUExampleScenario3.node[7].veinsmobility  speed  ETV
vector 56  RSUExampleScenario3.node[7].veinsmobility  acceleration  ETV
vector 57  RSUExampleScenario3.node[7].veinsmobility  co2emission  ETV
vector 60  RSUExampleScenario3.node[8].veinsmobility  posx  ETV
vector 61  RSUExampleScenario3.node[8].veinsmobility  posy  ETV
vector 62  RSUExampleScenario3.node[8].veinsmobility  speed  ETV
vector 63  RSUExampleScenario3.node[8].veinsmobility  acceleration  ETV
vector 64  RSUExampleScenario3.node[8].veinsmobility  co2emission  ETV
vector 67  RSUExampleScenario3.node[9].veinsmobility  posx  ETV
vector 68  RSUExampleScenario3.node[9].veinsmobility  posy  ETV
vector 69  RSUExampleScenario3.node[9].veinsmobility  speed  ETV
vector 70  RSUExampleScenario3.node[9].veinsmobility  acceleration  ETV
vector 71  RSUExampleScenario3.node[9].veinsmobility  co2emission  ETV
vector 74  RSUExampleScenario3.ambulanceNode[10].veinsmobility  posx  ETV
vector 75  RSUExampleScenario3.ambulanceNode[10].veinsmobility  posy  ETV
vector 76  RSUExampleScenario3.ambulanceNode[10].veinsmobility  speed  ETV
vector 77  RSUExampleScenario3.ambulanceNode[10].veinsmobility  acceleration  ETV
vector 78  RSUExampleScenario3.ambulanceNode[10].veinsmobility  co2emission  ETV
4	30	1	6544.7645515431
4	92	2	6544.7645515431
4	155	3	6542.9476746328
4	218	4	6540.0116517324
4	325	5	6535.934434791
4	433	6	6530.7540564709
4	541	7	6524.4311119153
4	705	8	6516.9571960627
4	870	9	6507.9908269355
4	1035	10	6498.6599067468
4	1268	11	6488.7740554279
4	1502	12	6478.5485587721
4	1736	13	6467.9060043297
4	2050	14	6457.0589492501
4	2365	15	6446.2009481844
4	2680	16	6434.8146793013
4	3087	17	6423.4232962404
4	3495	18	6411.9586877573
4	3903	19	6400.3693717154
4	4415	20	6388.7758925496
4	4928	21	6376.7153595439
4	5441	22	6364.6207750597
4	6070	23	6352.5427711299
4	6700	24	6340.4682005185
4	7330	25	6328.643117406
4	8029	26	6316.8291454981
4	8788	27	6305.0128038601
4	9547	28	6293.5813783405
4	10446	29	6283.0902151576
4	11354	30	6272.1142152844
4	12262	31	6263.4756260635
4	13554	32	6254.8459499898
4	15463	33	6246.2128074292
4	17289	34	6237.5962945883
4	19470	35	6229.7454538873
4	21229	36	6223.3121264809
4	23621	37	6219.0754368044
4	25392	38	6215.5146279735
4	27205	39	6212.0978107754
4	28976	40	6208.6809935773
4	30747	41	6205.2641763792
4	32518	42	6201.8473591811
4	34301	43	6198.430541983
4	36096	44	6195.0137247849
4	37891	45	6191.5969075868
4	39686	46	6188.1800903887
4	41481	47	6184.7632731906
4	43276	48	6181.3464559925
4	45071	49	6177.9296387944
4	46878	50	6174.5128215963
4	48685	51	6171.0960043982
4	50492	52	6167.6791872001
4	52299	53	6164.262370002
4	54106	54	6160.8455528039
4	55913	55	6157.4287356058
4	57732	56	6154.0119184077
4	59551	57	6150.5951012097
4	61370	58	6147.1782840116
4	63189	59	6143.7614668135
4	65016	60	6140.3446496154
4	66843	61	6136.9278324173
4	68682	62	6133.5299733356
4	70521	63	6130.2178055898
4	72360	64	6126.905637844
4	74199	65	6123.5934700982
4	76038	66	6120.2813023524
4	77877	67	6116.9691346066
4	79728	68	6113.6569668608
4	81579	69	6110.3447991149
4	83430	70	6107.0326313691
4	85281	71	6103.7204636233
4	87132	72	6100.4082958775
4	88967	73	6097.1014338376
4	90830	74	6093.8199757833
4	92693	75	6090.538517729
4	94556	76	6087.2570596748
4	96419	77	6083.9756016205
4	98282	78	6080.6941435663
4	100145	79	6077.412685512
4	102036	80	6074.1312274577
4	103927	81	6070.8497694035
4	105818	82	6067.5683113492
4	107693	83	6064.286853295
4	109568	84	6061.0053952407
4	111443	85	6057.2478266663
4	113318	86	6051.9163831784
4	115209	87	6048.0180284579
4	117100	88	6044.779862982
4	118991	89	6041.5416975061
4	120882	90	6038.3035320302
4	122773	91	6035.0653665543
4	124664	92	6031.8272010784
4	126555	93	6028.5890356024
4	128446	94	6025.3508701265
4	130337	95	6022.1127046506
4	132228	96	6018.8745391747
4	134119	97	6015.6363736988
4	135998	98	6012.3982082229
4	137877	99	6009.160042747
4	139756	100	6005.921877271
4	141635	101	6002.6837117951
4	143514	102	5999.4455463192
4	145393	103	5996.2073808433
4	147260	104	5992.9692153674
4	149127	105	5989.7310498915
4	150994	106	5986.4928844155
4	152861	107	5983.2547189396
4	154728	108	5980.0165534637
4	156595	109	5976.7783879878
4	158450	110	5973.5402225119
4	160285	111	5970.302057036
4	162132	112	5967.06389156
4	163979	113	5963.8257260841
4	165826	114	5963.5175606082
4	167673	115	5960.2793951323
4	169508	116	5957.0412296564
4	171331	117	5953.8030641805
4	173166	118	5950.5082889009
4	175001	119	5947.2078893368
4	176836	120	5943.9074897727
4	178671	121	5940.6070902086
4	180506	122	5937.3066906445
4	182341	123	5934.0062910804
4	184188	124	5930.7058915163
4	186035	125	5927.4054919521
4	187866	126	5922.4113534285
4	189697	127	5920.7528374083
4	191528	128	5919.094321388
4	193371	129	5917.4358053678
4	195230	130	5914.7357776427
4	197101	131	5911.7480533745
4	198960	132	5908.7603291063
4	200819	133	5905.7726048381
4	202678	134	5903.027565123
4	204521	135	5901.2565252316
4	206348	136	5900.5515653643
4	208191	137	5900.8067630953
4	210022	138	5902.4448698097
4	211853	139	5905.8509977624
4	213684	140	5910.077519296
4	215531	141	5915.3599607
4	217362	142	5921.6431269297
4	219209	143	5928.5387511601
4	221028	144	5935.4920716214
4	222863	145	5942.3878492716
4	224698	146	5948.9891175591
4	226533	147	5954.7262868555
4	228368	148	5958.9641546973
5	30	1	6531.1346674873
5	92	2	6531.1346674873
5	155	3	6528.6604084302
5	218	4	6524.662074139
5	325	5	6519.1096391405
5	433	6	6512.0548970692
5	541	7	6503.4441856086
5	705	8	6493.266058579
5	870	9	6482.6262582733
5	1035	10	6472.2096492476
5	1268	11	6462.3364183829
5	1502	12	6452.8317343883
5	1736	13	6443.7929354508
5	2050	14	6434.9903514857
5	2365	15	6426.1788846522
5	2680	16	6418.0917677557
5	3087	17	6410.0021287568
5	3495	18	6401.996390843
5	3903	19	6394.2861074943
5	4415	20	6386.5730544511
5	4928	21	6379.6411985288
5	5441	22	6372.7507191665
5	6070	23	6365.8696860128
5	6700	24	6358.984273339
5	7330	25	6351.6322382599
5	8029	26	6344.2871113747
5	8788	27	6336.9405111519
5	9547	28	6329.0768264433
5	10446	29	6319.925280941
5	11354	30	6313.3831535761
5	12262	31	6302.4486828353
5	13554	32	6291.5254940926
5	15463	33	6280.5979175732
5	17289	34	6269.6725336854
5	19470	35	6258.155310525
5	21229	36	6248.7175865633
5	23621	37	6242.5023413019
5	25392	38	6236.4888072725
5	27205	39	6230.3861256611
5	28976	40	6224.2834440497
5	30747	41	6218.1807624384
5	32518	42	6212.078080827
5	34301	43	6205.9753992156
5	36096	44	6199.8727176042
5	37891	45	6193.7700359928
5	39686	46	6187.6673543814
5	41481	47	6181.56467277
5	43276	48	6175.4619911586
5	45071	49	6169.3593095472
5	46878	50	6163.2566279358
5	48685	51	6157.1539463245
5	50492	52	6151.0512647131
5	52299	53	6144.9485831017
5	54106	54	6138.8459014903
5	55913	55	6132.7432198789
5	57732	56	6126.6405382675
5	59551	57	6120.5378566561
5	61370	58	6114.4351750447
5	63189	59	6108.3324934333
5	65016	60	6102.2298118219
5	66843	61	6096.1271302105
5	68682	62	6090.0140456726
5	70521	63	6083.8539395502
5	72360	64	6077.6938334279
5	74199	65	6071.5337273055
5	76038	66	6065.3736211831
5	77877	67	6059.2135150608
5	79728	68	6053.0534089384
5	81579	69	6046.893302816
5	83430	70	6040.7331966937
5	85281	71	6034.5730905713
5	87132	72	6028.4129844489
5	88967	73	6022.2627083599
5	90830	74	6016.0643987018
5	92693	75	6009.8660890438
5	94556	76	6003.6677793857
5	96419	77	5997.4694697277
5	98282	78	5991.2711600696
5	100145	79	5985.0728504116
5	102036	80	5978.8745407535
5	103927	81	5972.6762310955
5	105818	82	5966.4779214374
5	107693	83	5960.2796117794
5	109568	84	5954.0813021213
5	111443	85	5948.1667399995
5	113318	86	5944.6705802889
5	115209	87	5939.2024252053
5	117100	88	5932.9964791347
5	118991	89	5926.7905330642
5	120882	90	5920.5845869937
5	122773	91	5914.3786409232
5	124664	92	5908.1726948527
5	126555	93	5901.9667487821
5	128446	94	5895.7608027116
5	130337	95	5889.5548566411
5	132228	96	5883.3489105706
5	134119	97	5877.1429645
5	135998	98	5870.9370184295
5	137877	99	5864.731072359
5	139756	100	5858.5251262885
5	141635	101	5852.3191802179
5	143514	102	5846.1132341474
5	145393	103	5839.9072880769
5	147260	104	5833.7013420064
5	149127	105	5827.4953959359
5	150994	106	5821.2894498653
5	152861	107	5815.0835037948
5	154728	108	5808.8775577243
5	156595	109	5802.6716116538
5	158450	110	5796.4656655832
5	160285	111	5790.2597195127
5	162132	112	5784.0537734422
5	163979	113	5777.8478273717
5	165826	114	5770.1118813011
5	167673	115	5763.9059352306
5	169508	116	5757.6999891601
5	171331	117	5751.4940430896
5	173166	118	5745.2772005447
5	175001	119	5739.1048431164
5	176836	120	5732.9324856882
5	178671	121	5726.7601282599
5	180506	122	5720.5877708316
5	182341	123	5714.4154134034
5	184188	124	5708.2430559751
5	186035	125	5702.0706985469
5	187866	126	5698.1936624542
5	189697	127	5691.3943369905
5	191528	128	5684.5950115267
5	193371	129	5677.795686063
5	195230	130	5671.3527206249
5	197101	131	5665.0225349151
5	198960	132	5658.6923492053
5	200819	133	5652.3621634955
5	202678	134	5645.945180685
5	204521	135	5639.1723367254
5	206348	136	5632.2381404853
5	208191	137	5625.2990829137
5	210022	138	5618.492864875
5	211853	139	5612.3795455655
5	213684	140	5606.8377125335
5	215531	141	5602.4220510057
5	217362	142	5599.4343228486
5	219209	143	5598.2266953927
5	221028	144	5598.3833870797
5	222863	145	5599.4510693896
5	224698	146	5601.5876348999
5	226533	147	5605.5992288552
5	228368	148	5611.0795786001
6	92	2	3.9572089270348
6	155	3	5.7922925953529
6	218	4	7.6194012491274
6	325	5	9.5894080545995
6	433	6	11.533503466331
6	541	7	13.45866683106
6	705	8	13.873021058196
6	870	9	13.987787734221
6	1035	10	13.92303454956
6	1268	11	13.997504883918
6	1502	12	13.986970504746
6	1736	13	13.932265241607
6	2050	14	13.936240355759
6	2365	15	13.918232359637
6	2680	16	13.936552683001
6	3087	17	13.886342563913
6	3495	18	13.998514430835
6	3903	19	13.994200401348
6	4415	20	13.940441952762
6	4928	21	13.967247671166
6	5441	22	13.967575394399
6	6070	23	13.88342104964
6	6700	24	13.919109962026
6	7330	25	13.979139206402
6	8029	26	13.906217133983
6	8788	27	13.912720147136
6	9547	28	13.974052501973
6	10446	29	13.877146519173
6	11354	30	13.972383533192
6	12262	31	13.936054009828
6	13554	32	13.927896142672
6	15463	33	13.923161500536
6	17289	34	13.906479422376
6	19470	35	9.4064794223756
6	21229	36	7
6	23621	37	7
6	25392	38	7
6	27205	39	7
6	28976	40	7
6	30747	41	7
6	32518	42	7
6	34301	43	7
6	36096	44	7
6	37891	45	7
6	39686	46	7
6	41481	47	7
6	43276	48	7
6	45071	49	7
6	46878	50	7
6	48685	51	7
6	50492	52	7
6	52299	53	7
6	54106	54	7
6	55913	55	7
6	57732	56	7
6	59551	57	7
6	61370	58	7
6	63189	59	7
6	65016	60	7
6	66843	61	7
6	68682	62	7
6	70521	63	7
6	72360	64	7
6	74199	65	7
6	76038	66	7
6	77877	67	7
6	79728	68	7
6	81579	69	7
6	83430	70	7
6	85281	71	7
6	87132	72	7
6	88967	73	7
6	90830	74	7
6	92693	75	7
6	94556	76	7
6	96419	77	7
6	98282	78	7
6	100145	79	7
6	102036	80	7
6	103927	81	7
6	105818	82	7
6	107693	83	7
6	109568	84	7
6	111443	85	7
6	113318	86	7
6	115209	87	7
6	117100	88	7
6	118991	89	7
6	120882	90	7
6	122773	91	7
6	124664	92	7
6	126555	93	7
6	128446	94	7
6	130337	95	7
6	132228	96	7
6	134119	97	7
6	135998	98	7
6	137877	99	7
6	139756	100	7
6	141635	101	7
6	143514	102	7
6	145393	103	7
6	147260	104	7
6	149127	105	7
6	150994	106	7
6	152861	107	7
6	154728	108	7
6	156595	109	7
6	158450	110	7
6	160285	111	7
6	162132	112	7
6	163979	113	7
6	165826	114	7
6	167673	115	7
6	169508	116	7
6	171331	117	7
6	173166	118	7
6	175001	119	7
6	176836	120	7
6	178671	121	7
6	180506	122	7
6	182341	123	7
6	184188	124	7
6	186035	125	7
6	187866	126	7
6	189697	127	7
6	191528	128	7
6	193371	129	7
6	195230	130	7
6	197101	131	7
6	198960	132	7
6	200819	133	7
6	202678	134	7
6	204521	135	7
6	206348	136	7
6	208191	137	7
6	210022	138	7
6	211853	139	7
6	213684	140	7
6	215531	141	7
6	217362	142	7
6	219209	143	7
6	221028	144	7
6	222863	145	7
6	224698	146	7
6	226533	147	7
6	228368	148	7
7	155	3	1.8350836683181
7	218	4	1.8271086537745
7	325	5	1.9700068054721
7	433	6	1.9440954117314
7	541	7	1.9251633647294
7	705	8	0.4143542271355
7	870	9	0.11476667602547
7	1035	10	-0.064753184660804
7	1268	11	0.074470334358047
7	1502	12	-0.010534379172604
7	1736	13	-0.054705263138748
7	2050	14	0.0039751141518352
7	2365	15	-0.018007996121888
7	2680	16	0.018320323363879
7	3087	17	-0.050210119087716
7	3495	18	0.11217186692171
7	3903	19	-0.0043140294868493
7	4415	20	-0.053758448585867
7	4928	21	0.026805718403775
7	5441	22	0.00032772323349484
7	6070	23	-0.084154344759881
7	6700	24	0.03568891238654
7	7330	25	0.060029244376347
7	8029	26	-0.072922072419898
7	8788	27	0.0065030131535604
7	9547	28	0.061332354836631
7	10446	29	-0.096905982799361
7	11354	30	0.095237014018931
7	12262	31	-0.036329523364548
7	13554	32	-0.008157867155969
7	15463	33	-0.0047346421354444
7	17289	34	-0.016682078160812
7	19470	35	-4.5
7	21229	36	-2.4064794223756
7	23621	37	0
7	25392	38	0
7	27205	39	0
7	28976	40	0
7	30747	41	0
7	32518	42	0
7	34301	43	0
7	36096	44	0
7	37891	45	0
7	39686	46	0
7	41481	47	0
7	43276	48	0
7	45071	49	0
7	46878	50	0
7	48685	51	0
7	50492	52	0
7	52299	53	0
7	54106	54	0
7	55913	55	0
7	57732	56	0
7	59551	57	0
7	61370	58	0
7	63189	59	0
7	65016	60	0
7	66843	61	0
7	68682	62	0
7	70521	63	0
7	72360	64	0
7	74199	65	0
7	76038	66	0
7	77877	67	0
7	79728	68	0
7	81579	69	0
7	83430	70	0
7	85281	71	0
7	87132	72	0
7	88967	73	0
7	90830	74	0
7	92693	75	0
7	94556	76	0
7	96419	77	0
7	98282	78	0
7	100145	79	0
7	102036	80	0
7	103927	81	0
7	105818	82	0
7	107693	83	0
7	109568	84	0
7	111443	85	0
7	113318	86	0
7	115209	87	0
7	117100	88	0
7	118991	89	0
7	120882	90	0
7	122773	91	0
7	124664	92	0
7	126555	93	0
7	128446	94	0
7	130337	95	0
7	132228	96	0
7	134119	97	0
7	135998	98	0
7	137877	99	0
7	139756	100	0
7	141635	101	0
7	143514	102	0
7	145393	103	0
7	147260	104	0
7	149127	105	0
7	150994	106	0
7	152861	107	0
7	154728	108	0
7	156595	109	0
7	158450	110	0
7	160285	111	0
7	162132	112	0
7	163979	113	0
7	165826	114	0
7	167673	115	0
7	169508	116	0
7	171331	117	0
7	173166	118	0
7	175001	119	0
7	176836	120	0
7	178671	121	0
7	180506	122	0
7	182341	123	0
7	184188	124	0
7	186035	125	0
7	187866	126	0
7	189697	127	0
7	191528	128	0
7	193371	129	0
7	195230	130	0
7	197101	131	0
7	198960	132	0
7	200819	133	0
7	202678	134	0
7	204521	135	0
7	206348	136	0
7	208191	137	0
7	210022	138	0
7	211853	139	0
7	213684	140	0
7	215531	141	0
7	217362	142	0
7	219209	143	0
7	221028	144	0
7	222863	145	0
7	224698	146	0
7	226533	147	0
7	228368	148	0
8	155	3	3.9690439751639
8	218	4	4.8734986088453
8	325	5	6.2068327255978
8	433	6	7.2118621755177
8	541	7	8.2287933875323
8	705	8	3.4112383357952
8	870	9	2.4244807387756
8	1035	10	1.8137009457961
8	1268	11	2.2898099022095
8	1502	12	2.0020020998074
8	1736	13	1.8482360798459
8	2050	14	2.0456752375859
8	2365	15	1.9700834342329
8	2680	16	2.0938888010057
8	3087	17	1.859207449473
8	3495	18	2.4171230160978
8	3903	19	2.0237034716781
8	4415	20	1.8521438049225
8	4928	21	2.1257236745966
8	5441	22	2.0366294719502
8	6070	23	1.74537163726
8	6700	24	2.1502956540601
8	7330	25	2.2389467531681
8	8029	26	1.7848725270982
8	8788	27	2.051730205351
8	9547	28	2.2427409462865
8	10446	29	1.7022147078037
8	11354	30	2.3567141215104
8	12262	31	1.9102893269045
8	13554	32	2.0040900155971
8	15463	33	2.0151030434548
8	17289	34	1.9733808054031
8	19470	35	0.973
8	21229	36	0.973
8	23621	37	1.47936595584
8	25392	38	1.47936595584
8	27205	39	1.47936595584
8	28976	40	1.47936595584
8	30747	41	1.47936595584
8	32518	42	1.47936595584
8	34301	43	1.47936595584
8	36096	44	1.47936595584
8	37891	45	1.47936595584
8	39686	46	1.47936595584
8	41481	47	1.47936595584
8	43276	48	1.47936595584
8	45071	49	1.47936595584
8	46878	50	1.47936595584
8	48685	51	1.47936595584
8	50492	52	1.47936595584
8	52299	53	1.47936595584
8	54106	54	1.47936595584
8	55913	55	1.47936595584
8	57732	56	1.47936595584
8	59551	57	1.47936595584
8	61370	58	1.47936595584
8	63189	59	1.47936595584
8	65016	60	1.47936595584
8	66843	61	1.47936595584
8	68682	62	1.47936595584
8	70521	63	1.47936595584
8	72360	64	1.47936595584
8	74199	65	1.47936595584
8	76038	66	1.47936595584
8	77877	67	1.47936595584
8	79728	68	1.47936595584
8	81579	69	1.47936595584
8	83430	70	1.47936595584
8	85281	71	1.47936595584
8	87132	72	1.47936595584
8	88967	73	1.47936595584
8	90830	74	1.47936595584
8	92693	75	1.47936595584
8	94556	76	1.47936595584
8	96419	77	1.47936595584
8	98282	78	1.47936595584
8	100145	79	1.47936595584
8	102036	80	1.47936595584
8	103927	81	1.47936595584
8	105818	82	1.47936595584
8	107693	83	1.47936595584
8	109568	84	1.47936595584
8	111443	85	1.47936595584
8	113318	86	1.47936595584
8	115209	87	1.47936595584
8	117100	88	1.47936595584
8	118991	89	1.47936595584
8	120882	90	1.47936595584
8	122773	91	1.47936595584
8	124664	92	1.47936595584
8	126555	93	1.47936595584
8	128446	94	1.47936595584
8	130337	95	1.47936595584
8	132228	96	1.47936595584
8	134119	97	1.47936595584
8	135998	98	1.47936595584
8	137877	99	1.47936595584
8	139756	100	1.47936595584
8	141635	101	1.47936595584
8	143514	102	1.47936595584
8	145393	103	1.47936595584
8	147260	104	1.47936595584
8	149127	105	1.47936595584
8	150994	106	1.47936595584
8	152861	107	1.47936595584
8	154728	108	1.47936595584
8	156595	109	1.47936595584
8	158450	110	1.47936595584
8	160285	111	1.47936595584
8	162132	112	1.47936595584
8	163979	113	1.47936595584
8	165826	114	1.47936595584
8	167673	115	1.47936595584
8	169508	116	1.47936595584
8	171331	117	1.47936595584
8	173166	118	1.47936595584
8	175001	119	1.47936595584
8	176836	120	1.47936595584
8	178671	121	1.47936595584
8	180506	122	1.47936595584
8	182341	123	1.47936595584
8	184188	124	1.47936595584
8	186035	125	1.47936595584
8	187866	126	1.47936595584
8	189697	127	1.47936595584
8	191528	128	1.47936595584
8	193371	129	1.47936595584
8	195230	130	1.47936595584
8	197101	131	1.47936595584
8	198960	132	1.47936595584
8	200819	133	1.47936595584
8	202678	134	1.47936595584
8	204521	135	1.47936595584
8	206348	136	1.47936595584
8	208191	137	1.47936595584
8	210022	138	1.47936595584
8	211853	139	1.47936595584
8	213684	140	1.47936595584
8	215531	141	1.47936595584
8	217362	142	1.47936595584
8	219209	143	1.47936595584
8	221028	144	1.47936595584
8	222863	145	1.47936595584
8	224698	146	1.47936595584
8	226533	147	1.47936595584
8	228368	148	1.47936595584
11	218	4	6544.7547867117
11	325	5	6544.7547867117
11	433	6	6542.9269134862
11	541	7	6539.8565370628
11	705	8	6535.6372826048
11	870	9	6530.2408223198
11	1035	10	6523.6956738157
11	1268	11	6516.0532478835
11	1502	12	6506.9430276212
11	1736	13	6497.6064989675
11	2050	14	6487.6428959689
11	2365	15	6477.3987466699
11	2680	16	6466.6842757547
11	3087	17	6455.829809692
11	3495	18	6444.9203594607
11	3903	19	6433.5182245243
11	4415	20	6422.1278881361
11	4928	21	6410.6207585863
11	5441	22	6399.0470568096
11	6070	23	6387.4448411351
11	6700	24	6375.3465811024
11	7330	25	6363.2539937305
11	8029	26	6351.1654690727
11	8788	27	6339.1415296762
11	9547	28	6327.3208940182
11	10446	29	6315.5092342784
11	11354	30	6303.7098851867
11	12262	31	6292.424540943
11	13554	32	6281.7143210853
11	15463	33	6271.1447334271
11	17289	34	6264.0557214068
11	19470	35	6259.3885682894
11	21229	36	6255.0528277372
11	23621	37	6250.7170871849
11	25392	38	6246.3813466327
11	27205	39	6242.0456060805
11	28976	40	6237.7098655283
11	30747	41	6233.7686389655
11	32518	42	6229.82922831
11	34301	43	6225.8898176545
11	36096	44	6221.950406999
11	37891	45	6218.0109963435
11	39686	46	6214.5913938171
11	41481	47	6211.174576619
11	43276	48	6207.7577594209
11	45071	49	6204.3409422228
11	46878	50	6200.9241250247
11	48685	51	6197.5073078267
11	50492	52	6194.0904906286
11	52299	53	6190.6736734305
11	54106	54	6187.2568562324
11	55913	55	6183.8400390343
11	57732	56	6180.4232218362
11	59551	57	6177.0064046381
11	61370	58	6173.58958744
11	63189	59	6170.1727702419
11	65016	60	6166.7559530438
11	66843	61	6163.3391358457
11	68682	62	6159.9223186476
11	70521	63	6156.5055014495
11	72360	64	6153.0886842514
11	74199	65	6149.6718670533
11	76038	66	6146.2550498552
11	77877	67	6142.8382326571
11	79728	68	6139.421415459
11	81579	69	6136.0045982609
11	83430	70	6132.6350157721
11	85281	71	6129.3228480263
11	87132	72	6126.0106802805
11	88967	73	6122.6985125347
11	90830	74	6119.3863447889
11	92693	75	6116.074177043
11	94556	76	6112.7620092972
11	96419	77	6109.4498415514
11	98282	78	6106.1376738056
11	100145	79	6102.8255060598
11	102036	80	6099.513338314
11	103927	81	6096.2147741239
11	105818	82	6092.9333160697
11	107693	83	6089.6518580154
11	109568	84	6086.3703999611
11	111443	85	6083.0889419069
11	113318	86	6079.8074838526
11	115209	87	6076.5260257984
11	117100	88	6073.2445677441
11	118991	89	6069.9631096898
11	120882	90	6066.6816516356
11	122773	91	6063.4001935813
11	124664	92	6060.0869589015
11	126555	93	6056.1966549948
11	128446	94	6050.4516567721
11	130337	95	6047.1430665276
11	132228	96	6043.9049010517
11	134119	97	6040.6667355757
11	135998	98	6037.4285700998
11	137877	99	6034.1904046239
11	139756	100	6030.952239148
11	141635	101	6027.7140736721
11	143514	102	6024.4759081962
11	145393	103	6021.2377427202
11	147260	104	6017.9995772443
11	149127	105	6014.7614117684
11	150994	106	6011.5232462925
11	152861	107	6008.2850808166
11	154728	108	6005.0469153407
11	156595	109	6001.8087498647
11	158450	110	5998.5705843888
11	160285	111	5995.3324189129
11	162132	112	5992.094253437
11	163979	113	5988.8560879611
11	165826	114	5985.6179224852
11	167673	115	5982.3797570093
11	169508	116	5979.1415915333
11	171331	117	5975.9034260574
11	173166	118	5972.6652605815
11	175001	119	5969.4270951056
11	176836	120	5966.1889296297
11	178671	121	5965.8807641538
11	180506	122	5962.6425986778
11	182341	123	5959.4044332019
11	184188	124	5956.166267726
11	186035	125	5952.9281022501
11	187866	126	5949.6165111351
11	189697	127	5946.3161115709
11	191528	128	5943.0157120068
11	193371	129	5939.7153124427
11	195230	130	5936.4149128786
11	197101	131	5933.1145133145
11	198960	132	5929.8141137504
11	200819	133	5926.3136058633
11	202678	134	5921.9632174733
11	204521	135	5920.3047014531
11	206348	136	5918.6461854328
11	208191	137	5916.9162099387
11	210022	138	5913.9284856705
11	211853	139	5910.9407614024
11	213684	140	5907.9530371342
11	215531	141	5904.965312866
11	217362	142	5902.5490248835
11	219209	143	5900.7796444246
11	221028	144	5900.467120461
11	222863	145	5901.2493843955
11	224698	146	5903.3531869164
11	226533	147	5906.7757972379
11	228368	148	5911.3168618942
12	218	4	6531.1213695459
12	325	5	6531.1213695459
12	433	6	6528.6321354885
12	541	7	6524.4508359017
12	705	8	6518.7049713924
12	870	9	6511.3559646101
12	1035	10	6502.4426513998
12	1268	11	6492.0350439976
12	1502	12	6481.4565434355
12	1736	13	6471.0336733782
12	2050	14	6461.2624771066
12	2365	15	6451.7739505617
12	2680	16	6442.8014803245
12	3087	17	6433.9928822108
12	3495	18	6425.2683593857
12	3903	19	6417.1710848968
12	4415	20	6409.0821891969
12	4928	21	6401.1062767956
12	5441	22	6393.4063814981
12	6070	23	6385.7539568107
12	6700	24	6378.8613834293
12	7330	25	6371.972041854
12	8029	26	6365.0850148724
12	8788	27	6358.1594393418
12	9547	28	6350.8101693884
12	10446	29	6343.4664800526
12	11354	30	6336.1304446433
12	12262	31	6328.0677057293
12	13554	32	6319.4327298007
12	15463	33	6312.1560121146
12	17289	34	6303.1829503639
12	19470	35	6297.2754059837
12	21229	36	6291.7873538266
12	23621	37	6286.2993016695
12	25392	38	6280.8112495123
12	27205	39	6275.3231973552
12	28976	40	6269.8351451981
12	30747	41	6264.057343457
12	32518	42	6258.2782080284
12	34301	43	6252.4990725997
12	36096	44	6246.7199371711
12	37891	45	6240.9408017425
12	39686	46	6234.8398445735
12	41481	47	6228.7371629621
12	43276	48	6222.6344813507
12	45071	49	6216.5317997393
12	46878	50	6210.4291181279
12	48685	51	6204.3264365165
12	50492	52	6198.2237549051
12	52299	53	6192.1210732937
12	54106	54	6186.0183916824
12	55913	55	6179.915710071
12	57732	56	6173.8130284596
12	59551	57	6167.7103468482
12	61370	58	6161.6076652368
12	63189	59	6155.5049836254
12	65016	60	6149.402302014
12	66843	61	6143.2996204026
12	68682	62	6137.1969387912
12	70521	63	6131.0942571798
12	72360	64	6124.9915755684
12	74199	65	6118.8888939571
12	76038	66	6112.7862123457
12	77877	67	6106.6835307343
12	79728	68	6100.5808491229
12	81579	69	6094.4781675115
12	83430	70	6088.3495667001
12	85281	71	6082.1894605777
12	87132	72	6076.0293544554
12	88967	73	6069.869248333
12	90830	74	6063.7091422106
12	92693	75	6057.5490360883
12	94556	76	6051.3889299659
12	96419	77	6045.2288238435
12	98282	78	6039.0687177212
12	100145	79	6032.9086115988
12	102036	80	6026.7485054764
12	103927	81	6020.5879066785
12	105818	82	6014.3895970205
12	107693	83	6008.1912873624
12	109568	84	6001.9929777044
12	111443	85	5995.7946680463
12	113318	86	5989.5963583883
12	115209	87	5983.3980487302
12	117100	88	5977.1997390722
12	118991	89	5971.0014294141
12	120882	90	5964.8031197561
12	122773	91	5958.604810098
12	124664	92	5952.4254383522
12	126555	93	5946.5899824923
12	128446	94	5943.6700863016
12	130337	95	5937.5255601426
12	132228	96	5931.3196140721
12	134119	97	5925.1136680016
12	135998	98	5918.9077219311
12	137877	99	5912.7017758605
12	139756	100	5906.49582979
12	141635	101	5900.2898837195
12	143514	102	5894.083937649
12	145393	103	5887.8779915784
12	147260	104	5881.6720455079
12	149127	105	5875.4660994374
12	150994	106	5869.2601533669
12	152861	107	5863.0542072963
12	154728	108	5856.8482612258
12	156595	109	5850.6423151553
12	158450	110	5844.4363690848
12	160285	111	5838.2304230143
12	162132	112	5832.0244769437
12	163979	113	5825.8185308732
12	165826	114	5819.6125848027
12	167673	115	5813.4066387322
12	169508	116	5807.2006926616
12	171331	117	5800.9947465911
12	173166	118	5794.7888005206
12	175001	119	5788.5828544501
12	176836	120	5782.3769083795
12	178671	121	5774.640962309
12	180506	122	5768.4350162385
12	182341	123	5762.229070168
12	184188	124	5756.0231240974
12	186035	125	5749.8171780269
12	187866	126	5743.6094112329
12	189697	127	5737.4370538047
12	191528	128	5731.2646963764
12	193371	129	5725.0923389482
12	195230	130	5718.9199815199
12	197101	131	5712.7476240916
12	198960	132	5706.5752666634
12	200819	133	5700.6435124237
12	202678	134	5696.3564645169
12	204521	135	5689.5571390532
12	206348	136	5682.7578135894
12	208191	137	5675.9724713525
12	210022	138	5669.6422856427
12	211853	139	5663.3120999329
12	213684	140	5656.9819142231
12	215531	141	5650.6517285133
12	217362	142	5644.1151381288
12	219209	143	5637.3420430124
12	221028	144	5630.3484512049
12	222863	145	5623.4600225822
12	224698	146	5616.8363136817
12	226533	147	5610.729453917
12	228368	148	5605.4086966333
13	325	5	4.0425376740037
13	433	6	5.9899797741635
13	541	7	7.995898233327
13	705	8	9.9805223184414
13	870	9	11.797888050693
13	1035	10	13.711042579702
13	1268	11	13.938882815507
13	1502	12	13.987056018973
13	1736	13	13.93635863753
13	2050	14	13.873869230964
13	2365	15	13.999992804453
13	2680	16	13.983771702084
13	3087	17	13.935241770302
13	3495	18	13.930649462088
13	3903	19	13.907026762653
13	4415	20	13.934554434547
13	4928	21	13.995779511507
13	5441	22	13.97032573021
13	6070	23	13.971981254104
13	6700	24	13.998893493533
13	7330	25	13.924586101961
13	8029	26	13.878107421112
13	8788	27	13.983900225542
13	9547	28	13.907319508991
13	10446	29	13.882986723597
13	11354	30	13.958137745832
13	12262	31	13.901103336681
13	13554	32	13.920123052113
13	15463	33	9.4201230521128
13	17289	34	7
13	19470	35	7
13	21229	36	7
13	23621	37	7
13	25392	38	7
13	27205	39	7
13	28976	40	7
13	30747	41	7
13	32518	42	7
13	34301	43	7
13	36096	44	7
13	37891	45	7
13	39686	46	7
13	41481	47	7
13	43276	48	7
13	45071	49	7
13	46878	50	7
13	48685	51	7
13	50492	52	7
13	52299	53	7
13	54106	54	7
13	55913	55	7
13	57732	56	7
13	59551	57	7
13	61370	58	7
13	63189	59	7
13	65016	60	7
13	66843	61	7
13	68682	62	7
13	70521	63	7
13	72360	64	7
13	74199	65	7
13	76038	66	7
13	77877	67	7
13	79728	68	7
13	81579	69	7
13	83430	70	7
13	85281	71	7
13	87132	72	7
13	88967	73	7
13	90830	74	7
13	92693	75	7
13	94556	76	7
13	96419	77	7
13	98282	78	7
13	100145	79	7
13	102036	80	7
13	103927	81	7
13	105818	82	7
13	107693	83	7
13	109568	84	7
13	111443	85	7
13	113318	86	7
13	115209	87	7
13	117100	88	7
13	118991	89	7
13	120882	90	7
13	122773	91	7
13	124664	92	7
13	126555	93	7
13	128446	94	7
13	130337	95	7
13	132228	96	7
13	134119	97	7
13	135998	98	7
13	137877	99	7
13	139756	100	7
13	141635	101	7
13	143514	102	7
13	145393	103	7
13	147260	104	7
13	149127	105	7
13	150994	106	7
13	152861	107	7
13	154728	108	7
13	156595	109	7
13	158450	110	7
13	160285	111	7
13	162132	112	7
13	163979	113	7
13	165826	114	7
13	167673	115	7
13	169508	116	7
13	171331	117	7
13	173166	118	7
13	175001	119	7
13	176836	120	7
13	178671	121	7
13	180506	122	7
13	182341	123	7
13	184188	124	7
13	186035	125	7
13	187866	126	7
13	189697	127	7
13	191528	128	7
13	193371	129	7
13	195230	130	7
13	197101	131	7
13	198960	132	7
13	200819	133	7
13	202678	134	7
13	204521	135	7
13	206348	136	7
13	208191	137	7
13	210022	138	7
13	211853	139	7
13	213684	140	7
13	215531	141	7
13	217362	142	7
13	219209	143	7
13	221028	144	7
13	222863	145	7
13	224698	146	7
13	226533	147	7
13	228368	148	7
14	433	6	1.9474421001598
14	541	7	2.0059184591635
14	705	8	1.9846240851143
14	870	9	1.8173657322512
14	1035	10	1.9131545290095
14	1268	11	0.22784023580519
14	1502	12	0.048173203465995
14	1736	13	-0.050697381442879
14	2050	14	-0.0624894065666
14	2365	15	0.12612357348902
14	2680	16	-0.016221102369018
14	3087	17	-0.048529931781813
14	3495	18	-0.0045923082134696
14	3903	19	-0.0236226994358
14	4415	20	0.027527671894058
14	4928	21	0.061225076960399
14	5441	22	-0.025453781296964
14	6070	23	0.0016555238934224
14	6700	24	0.026912239429077
14	7330	25	-0.074307391571347
14	8029	26	-0.046478680849541
14	8788	27	0.10579280443024
14	9547	28	-0.076580716550817
14	10446	29	-0.024332785394508
14	11354	30	0.075151022234932
14	12262	31	-0.057034409150948
14	13554	32	0.019019715432078
14	15463	33	-4.5
14	17289	34	-2.4201230521128
14	19470	35	0
14	21229	36	0
14	23621	37	0
14	25392	38	0
14	27205	39	0
14	28976	40	0
14	30747	41	0
14	32518	42	0
14	34301	43	0
14	36096	44	0
14	37891	45	0
14	39686	46	0
14	41481	47	0
14	43276	48	0
14	45071	49	0
14	46878	50	0
14	48685	51	0
14	50492	52	0
14	52299	53	0
14	54106	54	0
14	55913	55	0
14	57732	56	0
14	59551	57	0
14	61370	58	0
14	63189	59	0
14	65016	60	0
14	66843	61	0
14	68682	62	0
14	70521	63	0
14	72360	64	0
14	74199	65	0
14	76038	66	0
14	77877	67	0
14	79728	68	0
14	81579	69	0
14	83430	70	0
14	85281	71	0
14	87132	72	0
14	88967	73	0
14	90830	74	0
14	92693	75	0
14	94556	76	0
14	96419	77	0
14	98282	78	0
14	100145	79	0
14	102036	80	0
14	103927	81	0
14	105818	82	0
14	107693	83	0
14	109568	84	0
14	111443	85	0
14	113318	86	0
14	115209	87	0
14	117100	88	0
14	118991	89	0
14	120882	90	0
14	122773	91	0
14	124664	92	0
14	126555	93	0
14	128446	94	0
14	130337	95	0
14	132228	96	0
14	134119	97	0
14	135998	98	0
14	137877	99	0
14	139756	100	0
14	141635	101	0
14	143514	102	0
14	145393	103	0
14	147260	104	0
14	149127	105	0
14	150994	106	0
14	152861	107	0
14	154728	108	0
14	156595	109	0
14	158450	110	0
14	160285	111	0
14	162132	112	0
14	163979	113	0
14	165826	114	0
14	167673	115	0
14	169508	116	0
14	171331	117	0
14	173166	118	0
14	175001	119	0
14	176836	120	0
14	178671	121	0
14	180506	122	0
14	182341	123	0
14	184188	124	0
14	186035	125	0
14	187866	126	0
14	189697	127	0
14	191528	128	0
14	193371	129	0
14	195230	130	0
14	197101	131	0
14	198960	132	0
14	200819	133	0
14	202678	134	0
14	204521	135	0
14	206348	136	0
14	208191	137	0
14	210022	138	0
14	211853	139	0
14	213684	140	0
14	215531	141	0
14	217362	142	0
14	219209	143	0
14	221028	144	0
14	222863	145	0
14	224698	146	0
14	226533	147	0
14	228368	148	0
15	433	6	4.2301091069722
15	541	7	5.4083752898229
15	705	8	6.4569285084612
15	870	9	6.9981297601067
15	1035	10	8.3312879690391
15	1268	11	2.7979710561013
15	1502	12	2.1999068898786
15	1736	13	1.862060966402
15	2050	14	1.8170336337383
15	2365	15	2.4643876269913
15	2680	16	1.9825177553303
15	3087	17	1.8692397712926
15	3495	18	2.0163360752151
15	3903	19	1.9501722039104
15	4415	20	2.1245964095562
15	4928	21	2.244926002996
15	5441	22	1.9501086784574
15	6070	23	2.0415516808395
15	6700	24	2.1295288887144
15	7330	25	1.7817726947314
15	8029	26	1.8709502657584
15	8788	27	2.3937319200063
15	9547	28	1.7727028712565
15	10446	29	1.9454872553412
15	11354	30	2.287362462657
15	12262	31	1.8376680508692
15	13554	32	2.0944866561067
15	15463	33	0.973
15	17289	34	0.973
15	19470	35	1.47936595584
15	21229	36	1.47936595584
15	23621	37	1.47936595584
15	25392	38	1.47936595584
15	27205	39	1.47936595584
15	28976	40	1.47936595584
15	30747	41	1.47936595584
15	32518	42	1.47936595584
15	34301	43	1.47936595584
15	36096	44	1.47936595584
15	37891	45	1.47936595584
15	39686	46	1.47936595584
15	41481	47	1.47936595584
15	43276	48	1.47936595584
15	45071	49	1.47936595584
15	46878	50	1.47936595584
15	48685	51	1.47936595584
15	50492	52	1.47936595584
15	52299	53	1.47936595584
15	54106	54	1.47936595584
15	55913	55	1.47936595584
15	57732	56	1.47936595584
15	59551	57	1.47936595584
15	61370	58	1.47936595584
15	63189	59	1.47936595584
15	65016	60	1.47936595584
15	66843	61	1.47936595584
15	68682	62	1.47936595584
15	70521	63	1.47936595584
15	72360	64	1.47936595584
15	74199	65	1.47936595584
15	76038	66	1.47936595584
15	77877	67	1.47936595584
15	79728	68	1.47936595584
15	81579	69	1.47936595584
15	83430	70	1.47936595584
15	85281	71	1.47936595584
15	87132	72	1.47936595584
15	88967	73	1.47936595584
15	90830	74	1.47936595584
15	92693	75	1.47936595584
15	94556	76	1.47936595584
15	96419	77	1.47936595584
15	98282	78	1.47936595584
15	100145	79	1.47936595584
15	102036	80	1.47936595584
15	103927	81	1.47936595584
15	105818	82	1.47936595584
15	107693	83	1.47936595584
15	109568	84	1.47936595584
15	111443	85	1.47936595584
15	113318	86	1.47936595584
15	115209	87	1.47936595584
15	117100	88	1.47936595584
15	118991	89	1.47936595584
15	120882	90	1.47936595584
15	122773	91	1.47936595584
15	124664	92	1.47936595584
15	126555	93	1.47936595584
15	128446	94	1.47936595584
15	130337	95	1.47936595584
15	132228	96	1.47936595584
15	134119	97	1.47936595584
15	135998	98	1.47936595584
15	137877	99	1.47936595584
15	139756	100	1.47936595584
15	141635	101	1.47936595584
15	143514	102	1.47936595584
15	145393	103	1.47936595584
15	147260	104	1.47936595584
15	149127	105	1.47936595584
15	150994	106	1.47936595584
15	152861	107	1.47936595584
15	154728	108	1.47936595584
15	156595	109	1.47936595584
15	158450	110	1.47936595584
15	160285	111	1.47936595584
15	162132	112	1.47936595584
15	163979	113	1.47936595584
15	165826	114	1.47936595584
15	167673	115	1.47936595584
15	169508	116	1.47936595584
15	171331	117	1.47936595584
15	173166	118	1.47936595584
15	175001	119	1.47936595584
15	176836	120	1.47936595584
15	178671	121	1.47936595584
15	180506	122	1.47936595584
15	182341	123	1.47936595584
15	184188	124	1.47936595584
15	186035	125	1.47936595584
15	187866	126	1.47936595584
15	189697	127	1.47936595584
15	191528	128	1.47936595584
15	193371	129	1.47936595584
15	195230	130	1.47936595584
15	197101	131	1.47936595584
15	198960	132	1.47936595584
15	200819	133	1.47936595584
15	202678	134	1.47936595584
15	204521	135	1.47936595584
15	206348	136	1.47936595584
15	208191	137	1.47936595584
15	210022	138	1.47936595584
15	211853	139	1.47936595584
15	213684	140	1.47936595584
15	215531	141	1.47936595584
15	217362	142	1.47936595584
15	219209	143	1.47936595584
15	221028	144	1.47936595584
15	222863	145	1.47936595584
15	224698	146	1.47936595584
15	226533	147	1.47936595584
15	228368	148	1.47936595584
18	541	7	6544.7411069386
18	705	8	6544.7411069386
18	870	9	6542.8327836145
18	1035	10	6539.7082380326
18	1268	11	6535.3845433511
18	1502	12	6529.9463628854
18	1736	13	6523.3455521294
18	2050	14	6515.6662042744
18	2365	15	6506.5062596228
18	2680	16	6497.1770603648
18	3087	17	6487.1661697946
18	3495	18	6476.9033290813
18	3903	19	6466.1722703323
18	4415	20	6455.3010829245
18	4928	21	6444.3507541208
18	5441	22	6432.9581673784
18	6070	23	6421.5682899234
18	6700	24	6410.0480254188
18	7330	25	6398.4652141119
18	8029	26	6386.8573320575
18	8788	27	6374.7748988376
18	9547	28	6362.6837209533
18	10446	29	6350.5881432668
18	11354	30	6338.5693961746
18	12262	31	6326.7542821622
18	13554	32	6314.9383262142
18	15463	33	6303.1476152849
18	17289	34	6293.8242053951
18	19470	35	6288.1682951047
18	21229	36	6282.9043627799
18	23621	37	6276.249190587
18	25392	38	6271.9134500348
18	27205	39	6267.5777094826
18	28976	40	6263.2419689303
18	30747	41	6258.9062283781
18	32518	42	6254.5704878259
18	34301	43	6250.2347472737
18	36096	44	6245.8990067215
18	37891	45	6241.5632661692
18	39686	46	6237.2698003847
18	41481	47	6233.3303897292
18	43276	48	6229.3909790737
18	45071	49	6225.4515684182
18	46878	50	6221.5121577626
18	48685	51	6217.6280989481
18	50492	52	6214.21128175
18	52299	53	6210.7944645519
18	54106	54	6207.3776473538
18	55913	55	6203.9608301557
18	57732	56	6200.5440129576
18	59551	57	6197.1271957595
18	61370	58	6193.7103785614
18	63189	59	6190.2935613633
18	65016	60	6186.8767441652
18	66843	61	6183.4599269671
18	68682	62	6180.043109769
18	70521	63	6176.6262925709
18	72360	64	6173.2094753728
18	74199	65	6169.7926581747
18	76038	66	6166.3758409766
18	77877	67	6162.9590237785
18	79728	68	6159.5422065804
18	81579	69	6156.1253893823
18	83430	70	6152.7085721842
18	85281	71	6149.2917549861
18	87132	72	6145.874937788
18	88967	73	6142.4581205899
18	90830	74	6139.0413033918
18	92693	75	6135.6244861937
18	94556	76	6132.2665456855
18	96419	77	6128.9543779397
18	98282	78	6125.6422101939
18	100145	79	6122.3300424481
18	102036	80	6119.0178747023
18	103927	81	6115.7057069565
18	105818	82	6112.3935392107
18	107693	83	6109.0813714649
18	109568	84	6105.7692037191
18	111443	85	6102.4570359733
18	113318	86	6099.1448682274
18	115209	87	6095.849720411
18	117100	88	6092.5682623568
18	118991	89	6089.2868043025
18	120882	90	6086.0053462483
18	122773	91	6082.723888194
18	124664	92	6079.4424301397
18	126555	93	6076.1609720855
18	128446	94	6072.8795140312
18	130337	95	6069.598055977
18	132228	96	6066.3165979227
18	134119	97	6063.0351398684
18	135998	98	6059.6541726638
18	137877	99	6055.7638687572
18	139756	100	6050.0209944779
18	141635	101	6046.7828290019
18	143514	102	6043.544663526
18	145393	103	6040.3064980501
18	147260	104	6037.0683325742
18	149127	105	6033.8301670983
18	150994	106	6030.5920016224
18	152861	107	6027.3538361465
18	154728	108	6024.1156706705
18	156595	109	6020.8775051946
18	158450	110	6017.6393397187
18	160285	111	6014.4011742428
18	162132	112	6011.1630087669
18	163979	113	6007.924843291
18	165826	114	6004.686677815
18	167673	115	6001.4485123391
18	169508	116	5998.2103468632
18	171331	117	5994.9721813873
18	173166	118	5991.7340159114
18	175001	119	5988.4958504355
18	176836	120	5985.2576849595
18	178671	121	5982.0195194836
18	180506	122	5978.7813540077
18	182341	123	5975.5431885318
18	184188	124	5972.3050230559
18	186035	125	5969.06685758
18	187866	126	5968.758692104
18	189697	127	5965.5205266281
18	191528	128	5962.2823611522
18	193371	129	5959.0441956763
18	195230	130	5955.8060302004
18	197101	131	5952.5497497924
18	198960	132	5949.2493502282
18	200819	133	5945.9489506641
18	202678	134	5942.6485511
18	204521	135	5939.3481515359
18	206348	136	5936.0477519718
18	208191	137	5932.7473524077
18	210022	138	5929.4469528436
18	211853	139	5925.5721338846
18	213684	140	5921.7787118599
18	215531	141	5920.1201958397
18	217362	142	5918.4616798195
18	219209	143	5916.5838333491
18	221028	144	5913.5961090809
18	222863	145	5910.6083848127
18	224698	146	5907.6206605445
18	226533	147	5904.6329362764
18	228368	148	5902.3520012808
19	541	7	6531.1027401593
19	705	8	6531.1027401593
19	870	9	6528.5039475599
19	1035	10	6524.2488793373
19	1268	11	6518.3607860576
19	1502	12	6510.9549639049
19	1736	13	6501.9658487345
19	2050	14	6491.5079603245
19	2365	15	6480.9689557827
19	2680	16	6470.5542679247
19	3087	17	6460.8098654859
19	3495	18	6451.31818504
19	3903	19	6442.3859785419
19	4415	20	6433.5638107502
19	4928	21	6424.8638517375
19	5441	22	6416.773357939
19	6070	23	6408.6847881525
19	6700	24	6400.7252417985
19	7330	25	6393.0192860002
19	8029	26	6385.4192434372
19	8788	27	6378.5356868456
19	9547	28	6371.6471482781
19	10446	29	6364.7561030725
19	11354	30	6357.8037255143
19	12262	31	6350.4578885459
19	13554	32	6343.1115281191
19	15463	33	6335.7808633335
19	17289	34	6329.2886468869
19	19470	35	6324.3549403496
19	21229	36	6319.763160072
19	23621	37	6318.6170830181
19	25392	38	6313.129030861
19	27205	39	6307.6409787039
19	28976	40	6302.1529265468
19	30747	41	6296.6648743897
19	32518	42	6291.1768222326
19	34301	43	6285.6887700755
19	36096	44	6280.2007179184
19	37891	45	6274.7126657613
19	39686	46	6269.1935650313
19	41481	47	6263.4144296027
19	43276	48	6257.635294174
19	45071	49	6251.8561587454
19	46878	50	6246.0770233168
19	48685	51	6240.2636186554
19	50492	52	6234.160937044
19	52299	53	6228.0582554326
19	54106	54	6221.9555738212
19	55913	55	6215.8528922098
19	57732	56	6209.7502105984
19	59551	57	6203.647528987
19	61370	58	6197.5448473756
19	63189	59	6191.4421657642
19	65016	60	6185.3394841529
19	66843	61	6179.2368025415
19	68682	62	6173.1341209301
19	70521	63	6167.0314393187
19	72360	64	6160.9287577073
19	74199	65	6154.8260760959
19	76038	66	6148.7233944845
19	77877	67	6142.6207128731
19	79728	68	6136.5180312617
19	81579	69	6130.4153496503
19	83430	70	6124.312668039
19	85281	71	6118.2099864276
19	87132	72	6112.1073048162
19	88967	73	6106.0046232048
19	90830	74	6099.9019415934
19	92693	75	6093.799259982
19	94556	76	6087.6642708424
19	96419	77	6081.5041647201
19	98282	78	6075.3440585977
19	100145	79	6069.1839524753
19	102036	80	6063.023846353
19	103927	81	6056.8637402306
19	105818	82	6050.7036341082
19	107693	83	6044.5435279859
19	109568	84	6038.3834218635
19	111443	85	6032.2233157411
19	113318	86	6026.0632096187
19	115209	87	6019.8983607764
19	117100	88	6013.7000511184
19	118991	89	6007.5017414603
19	120882	90	6001.3034318023
19	122773	91	5995.1051221442
19	124664	92	5988.9068124862
19	126555	93	5982.7085028281
19	128446	94	5976.5101931701
19	130337	95	5970.311883512
19	132228	96	5964.113573854
19	134119	97	5957.9152641959
19	135998	98	5951.7762589957
19	137877	99	5945.9408031358
19	139756	100	5943.0411107799
19	141635	101	5936.8351647094
19	143514	102	5930.6292186389
19	145393	103	5924.4232725683
19	147260	104	5918.2173264978
19	149127	105	5912.0113804273
19	150994	106	5905.8054343568
19	152861	107	5899.5994882863
19	154728	108	5893.3935422157
19	156595	109	5887.1875961452
19	158450	110	5880.9816500747
19	160285	111	5874.7757040042
19	162132	112	5868.5697579336
19	163979	113	5862.3638118631
19	165826	114	5856.1578657926
19	167673	115	5849.9519197221
19	169508	116	5843.7459736515
19	171331	117	5837.540027581
19	173166	118	5831.3340815105
19	175001	119	5825.12813544
19	176836	120	5818.9221893695
19	178671	121	5812.7162432989
19	180506	122	5806.5102972284
19	182341	123	5800.3043511579
19	184188	124	5794.0984050874
19	186035	125	5787.8924590168
19	187866	126	5780.1565129463
19	189697	127	5773.9505668758
19	191528	128	5767.7446208053
19	193371	129	5761.5386747347
19	195230	130	5755.3327286642
19	197101	131	5749.0951098775
19	198960	132	5742.9227524492
19	200819	133	5736.7503950209
19	202678	134	5730.5780375927
19	204521	135	5724.4056801644
19	206348	136	5718.2333227362
19	208191	137	5712.0609653079
19	210022	138	5705.8886078796
19	211853	139	5700.4069120687
19	213684	140	5695.6000571624
19	215531	141	5688.8007316987
19	217362	142	5682.001406235
19	219209	143	5675.268254581
19	221028	144	5668.9380688712
19	222863	145	5662.6078831614
19	224698	146	5656.2776974516
19	226533	147	5649.9475117419
19	228368	148	5643.3616767731
20	705	8	4.0617275998512
20	870	9	6.1353786575448
20	1035	10	8.1828713404717
20	1268	11	10.026246972497
20	1502	12	11.901434952405
20	1736	13	13.915206189375
20	2050	14	13.970436098205
20	2365	15	13.886555414519
20	2680	16	13.953770344446
20	3087	17	13.961907363075
20	3495	18	13.899824502657
20	3903	19	13.896026535179
20	4415	20	13.923172058796
20	4928	21	13.971249081446
20	5441	22	13.986232199401
20	6070	23	13.947124665573
20	6700	24	13.963721167336
20	7330	25	13.884780393564
20	8029	26	13.917114249484
20	8788	27	13.95518664412
20	9547	28	13.943712053264
20	10446	29	13.871054257208
20	11354	30	13.976205671804
20	12262	31	13.883135057813
20	13554	32	13.892507991707
20	15463	33	9.392507991707
20	17289	34	7
20	19470	35	7
20	21229	36	7
20	23621	37	7
20	25392	38	7
20	27205	39	7
20	28976	40	7
20	30747	41	7
20	32518	42	7
20	34301	43	7
20	36096	44	7
20	37891	45	7
20	39686	46	7
20	41481	47	7
20	43276	48	7
20	45071	49	7
20	46878	50	7
20	48685	51	7
20	50492	52	7
20	52299	53	7
20	54106	54	7
20	55913	55	7
20	57732	56	7
20	59551	57	7
20	61370	58	7
20	63189	59	7
20	65016	60	7
20	66843	61	7
20	68682	62	7
20	70521	63	7
20	72360	64	7
20	74199	65	7
20	76038	66	7
20	77877	67	7
20	79728	68	7
20	81579	69	7
20	83430	70	7
20	85281	71	7
20	87132	72	7
20	88967	73	7
20	90830	74	7
20	92693	75	7
20	94556	76	7
20	96419	77	7
20	98282	78	7
20	100145	79	7
20	102036	80	7
20	103927	81	7
20	105818	82	7
20	107693	83	7
20	109568	84	7
20	111443	85	7
20	113318	86	7
20	115209	87	7
20	117100	88	7
20	118991	89	7
20	120882	90	7
20	122773	91	7
20	124664	92	7
20	126555	93	7
20	128446	94	7
20	130337	95	7
20	132228	96	7
20	134119	97	7
20	135998	98	7
20	137877	99	7
20	139756	100	7
20	141635	101	7
20	143514	102	7
20	145393	103	7
20	147260	104	7
20	149127	105	7
20	150994	106	7
20	152861	107	7
20	154728	108	7
20	156595	109	7
20	158450	110	7
20	160285	111	7
20	162132	112	7
20	163979	113	7
20	165826	114	7
20	167673	115	7
20	169508	116	7
20	171331	117	7
20	173166	118	7
20	175001	119	7
20	176836	120	7
20	178671	121	7
20	180506	122	7
20	182341	123	7
20	184188	124	7
20	186035	125	7
20	187866	126	7
20	189697	127	7
20	191528	128	7
20	193371	129	7
20	195230	130	7
20	197101	131	7
20	198960	132	7
20	200819	133	7
20	202678	134	7
20	204521	135	7
20	206348	136	7
20	208191	137	7
20	210022	138	7
20	211853	139	7
20	213684	140	7
20	215531	141	7
20	217362	142	7
20	219209	143	7
20	221028	144	7
20	222863	145	7
20	224698	146	7
20	226533	147	7
20	228368	148	7
21	870	9	2.0736510576936
21	1035	10	2.0474926829268
21	1268	11	1.8433756320248
21	1502	12	1.8751879799087
21	1736	13	2.0137712369696
21	2050	14	0.055229908830604
21	2365	15	-0.083880683686585
21	2680	16	0.067214929927141
21	3087	17	0.0081370186293501
21	3495	18	-0.062082860418595
21	3903	19	-0.0037979674781674
21	4415	20	0.027145523617509
21	4928	21	0.048077022649814
21	5441	22	0.014983117955271
21	6070	23	-0.039107533828355
21	6700	24	0.016596501762978
21	7330	25	-0.07894077377161
21	8029	26	0.032333855920006
21	8788	27	0.038072394635527
21	9547	28	-0.01147459085565
21	10446	29	-0.07265779605601
21	11354	30	0.10515141459648
21	12262	31	-0.093070613991003
21	13554	32	0.0093729338934647
21	15463	33	-4.5
21	17289	34	-2.392507991707
21	19470	35	0
21	21229	36	0
21	23621	37	0
21	25392	38	0
21	27205	39	0
21	28976	40	0
21	30747	41	0
21	32518	42	0
21	34301	43	0
21	36096	44	0
21	37891	45	0
21	39686	46	0
21	41481	47	0
21	43276	48	0
21	45071	49	0
21	46878	50	0
21	48685	51	0
21	50492	52	0
21	52299	53	0
21	54106	54	0
21	55913	55	0
21	57732	56	0
21	59551	57	0
21	61370	58	0
21	63189	59	0
21	65016	60	0
21	66843	61	0
21	68682	62	0
21	70521	63	0
21	72360	64	0
21	74199	65	0
21	76038	66	0
21	77877	67	0
21	79728	68	0
21	81579	69	0
21	83430	70	0
21	85281	71	0
21	87132	72	0
21	88967	73	0
21	90830	74	0
21	92693	75	0
21	94556	76	0
21	96419	77	0
21	98282	78	0
21	100145	79	0
21	102036	80	0
21	103927	81	0
21	105818	82	0
21	107693	83	0
21	109568	84	0
21	111443	85	0
21	113318	86	0
21	115209	87	0
21	117100	88	0
21	118991	89	0
21	120882	90	0
21	122773	91	0
21	124664	92	0
21	126555	93	0
21	128446	94	0
21	130337	95	0
21	132228	96	0
21	134119	97	0
21	135998	98	0
21	137877	99	0
21	139756	100	0
21	141635	101	0
21	143514	102	0
21	145393	103	0
21	147260	104	0
21	149127	105	0
21	150994	106	0
21	152861	107	0
21	154728	108	0
21	156595	109	0
21	158450	110	0
21	160285	111	0
21	162132	112	0
21	163979	113	0
21	165826	114	0
21	167673	115	0
21	169508	116	0
21	171331	117	0
21	173166	118	0
21	175001	119	0
21	176836	120	0
21	178671	121	0
21	180506	122	0
21	182341	123	0
21	184188	124	0
21	186035	125	0
21	187866	126	0
21	189697	127	0
21	191528	128	0
21	193371	129	0
21	195230	130	0
21	197101	131	0
21	198960	132	0
21	200819	133	0
21	202678	134	0
21	204521	135	0
21	206348	136	0
21	208191	137	0
21	210022	138	0
21	211853	139	0
21	213684	140	0
21	215531	141	0
21	217362	142	0
21	219209	143	0
21	221028	144	0
21	222863	145	0
21	224698	146	0
21	226533	147	0
21	228368	148	0
22	870	9	4.4934607714223
22	1035	10	5.5931609271493
22	1268	11	6.1409699278974
22	1502	12	7.2183547368087
22	1736	13	8.7834912543851
22	2050	14	2.2217712025271
22	2365	15	1.7465425899189
22	2680	16	2.2601489812464
22	3087	17	2.0623261375086
22	3495	18	1.8206438640178
22	3903	19	2.0155069204561
22	4415	20	2.1220775089348
22	4928	21	2.1977809426547
22	5441	22	2.0879396984702
22	6070	23	1.9019851770914
22	6700	24	2.0909835264368
22	7330	25	1.7629280817832
22	8029	26	2.1388221337706
22	8788	27	2.1623045039429
22	9547	28	1.9945274876866
22	10446	29	1.7827979459955
22	11354	30	2.3905874139578
22	12262	31	1.7155159939411
22	13554	32	2.0592495809004
22	15463	33	0.973
22	17289	34	0.973
22	19470	35	1.47936595584
22	21229	36	1.47936595584
22	23621	37	1.47936595584
22	25392	38	1.47936595584
22	27205	39	1.47936595584
22	28976	40	1.47936595584
22	30747	41	1.47936595584
22	32518	42	1.47936595584
22	34301	43	1.47936595584
22	36096	44	1.47936595584
22	37891	45	1.47936595584
22	39686	46	1.47936595584
22	41481	47	1.47936595584
22	43276	48	1.47936595584
22	45071	49	1.47936595584
22	46878	50	1.47936595584
22	48685	51	1.47936595584
22	50492	52	1.47936595584
22	52299	53	1.47936595584
22	54106	54	1.47936595584
22	55913	55	1.47936595584
22	57732	56	1.47936595584
22	59551	57	1.47936595584
22	61370	58	1.47936595584
22	63189	59	1.47936595584
22	65016	60	1.47936595584
22	66843	61	1.47936595584
22	68682	62	1.47936595584
22	70521	63	1.47936595584
22	72360	64	1.47936595584
22	74199	65	1.47936595584
22	76038	66	1.47936595584
22	77877	67	1.47936595584
22	79728	68	1.47936595584
22	81579	69	1.47936595584
22	83430	70	1.47936595584
22	85281	71	1.47936595584
22	87132	72	1.47936595584
22	88967	73	1.47936595584
22	90830	74	1.47936595584
22	92693	75	1.47936595584
22	94556	76	1.47936595584
22	96419	77	1.47936595584
22	98282	78	1.47936595584
22	100145	79	1.47936595584
22	102036	80	1.47936595584
22	103927	81	1.47936595584
22	105818	82	1.47936595584
22	107693	83	1.47936595584
22	109568	84	1.47936595584
22	111443	85	1.47936595584
22	113318	86	1.47936595584
22	115209	87	1.47936595584
22	117100	88	1.47936595584
22	118991	89	1.47936595584
22	120882	90	1.47936595584
22	122773	91	1.47936595584
22	124664	92	1.47936595584
22	126555	93	1.47936595584
22	128446	94	1.47936595584
22	130337	95	1.47936595584
22	132228	96	1.47936595584
22	134119	97	1.47936595584
22	135998	98	1.47936595584
22	137877	99	1.47936595584
22	139756	100	1.47936595584
22	141635	101	1.47936595584
22	143514	102	1.47936595584
22	145393	103	1.47936595584
22	147260	104	1.47936595584
22	149127	105	1.47936595584
22	150994	106	1.47936595584
22	152861	107	1.47936595584
22	154728	108	1.47936595584
22	156595	109	1.47936595584
22	158450	110	1.47936595584
22	160285	111	1.47936595584
22	162132	112	1.47936595584
22	163979	113	1.47936595584
22	165826	114	1.47936595584
22	167673	115	1.47936595584
22	169508	116	1.47936595584
22	171331	117	1.47936595584
22	173166	118	1.47936595584
22	175001	119	1.47936595584
22	176836	120	1.47936595584
22	178671	121	1.47936595584
22	180506	122	1.47936595584
22	182341	123	1.47936595584
22	184188	124	1.47936595584
22	186035	125	1.47936595584
22	187866	126	1.47936595584
22	189697	127	1.47936595584
22	191528	128	1.47936595584
22	193371	129	1.47936595584
22	195230	130	1.47936595584
22	197101	131	1.47936595584
22	198960	132	1.47936595584
22	200819	133	1.47936595584
22	202678	134	1.47936595584
22	204521	135	1.47936595584
22	206348	136	1.47936595584
22	208191	137	1.47936595584
22	210022	138	1.47936595584
22	211853	139	1.47936595584
22	213684	140	1.47936595584
22	215531	141	1.47936595584
22	217362	142	1.47936595584
22	219209	143	1.47936595584
22	221028	144	1.47936595584
22	222863	145	1.47936595584
22	224698	146	1.47936595584
22	226533	147	1.47936595584
22	228368	148	1.47936595584
25	1035	10	6544.7377055239
25	1268	11	6544.7377055239
25	1502	12	6542.9273016289
25	1736	13	6539.9639913768
25	2050	14	6535.7573658815
25	2365	15	6530.3976728871
25	2680	16	6523.9098053222
25	3087	17	6516.2802822618
25	3495	18	6507.207454093
25	3903	19	6497.8938230276
25	4415	20	6487.9455250006
25	4928	21	6477.7070960672
25	5441	22	6467.0083205866
25	6070	23	6456.1600417282
25	6700	24	6445.2700494563
25	7330	25	6433.8859985061
25	8029	26	6422.4956622372
25	8788	27	6410.9851196305
25	9547	28	6399.3940102122
25	10446	29	6387.7963743589
25	11354	30	6375.7031928051
25	12262	31	6363.6202603525
25	13554	32	6351.5536868002
25	15463	33	6339.5010165286
25	17289	34	6329.8147441428
25	19470	35	6323.4356025851
25	21229	36	6317.5034439348
25	23621	37	6311.5712852845
25	25392	38	6305.6391266342
25	27205	39	6299.7069679838
25	28976	40	6294.0930521333
25	30747	41	6288.8291198085
25	32518	42	6283.5651874836
25	34301	43	6277.0336748242
25	36096	44	6272.4577511939
25	37891	45	6268.1220106417
25	39686	46	6263.7862700894
25	41481	47	6259.4505295372
25	43276	48	6255.114788985
25	45071	49	6250.7790484328
25	46878	50	6246.4433078806
25	48685	51	6242.1075673283
25	50492	52	6237.7718267761
25	52299	53	6233.8249363378
25	54106	54	6229.8855256823
25	55913	55	6225.9461150268
25	57732	56	6222.0067043713
25	59551	57	6218.0672937158
25	61370	58	6214.6402229052
25	63189	59	6211.2234057071
25	65016	60	6207.806588509
25	66843	61	6204.3897713109
25	68682	62	6200.9729541128
25	70521	63	6197.5561369147
25	72360	64	6194.1393197166
25	74199	65	6190.7225025185
25	76038	66	6187.3056853204
25	77877	67	6183.8888681223
25	79728	68	6180.4720509242
25	81579	69	6177.0552337261
25	83430	70	6173.638416528
25	85281	71	6170.2215993299
25	87132	72	6166.8047821318
25	88967	73	6163.3879649337
25	90830	74	6159.9711477356
25	92693	75	6156.5543305375
25	94556	76	6153.1375133394
25	96419	77	6149.7206961413
25	98282	78	6146.3038789432
25	100145	79	6142.8870617451
25	102036	80	6139.470244547
25	103927	81	6136.0534273489
25	105818	82	6132.6823493346
25	107693	83	6129.3701815888
25	109568	84	6126.058013843
25	111443	85	6122.7458460972
25	113318	86	6119.4336783514
25	115209	87	6116.1215106056
25	117100	88	6112.8093428598
25	118991	89	6109.497175114
25	120882	90	6106.1850073682
25	122773	91	6102.8728396224
25	124664	92	6099.5606718766
25	126555	93	6096.2616688201
25	128446	94	6092.9802107658
25	130337	95	6089.6987527116
25	132228	96	6086.4172946573
25	134119	97	6083.135836603
25	135998	98	6079.8543785488
25	137877	99	6076.5729204945
25	139756	100	6073.2914624403
25	141635	101	6070.010004386
25	143514	102	6066.7285463317
25	145393	103	6063.4470882775
25	147260	104	6060.1425544985
25	149127	105	6056.2522505919
25	150994	106	6050.5227664906
25	152861	107	6047.1893425377
25	154728	108	6043.9511770618
25	156595	109	6040.7130115858
25	158450	110	6037.4748461099
25	160285	111	6034.236680634
25	162132	112	6030.9985151581
25	163979	113	6027.7603496822
25	165826	114	6024.5221842063
25	167673	115	6021.2840187304
25	169508	116	6018.0458532544
25	171331	117	6014.8076877785
25	173166	118	6011.5695223026
25	175001	119	6008.3313568267
25	176836	120	6005.0931913508
25	178671	121	6001.8550258749
25	180506	122	5998.6168603989
25	182341	123	5995.378694923
25	184188	124	5992.1405294471
25	186035	125	5988.9023639712
25	187866	126	5985.6641984953
25	189697	127	5982.4260330194
25	191528	128	5979.1878675434
25	193371	129	5975.9497020675
25	195230	130	5972.7115365916
25	197101	131	5972.4033711157
25	198960	132	5969.1652056398
25	200819	133	5965.9270401639
25	202678	134	5962.6888746879
25	204521	135	5959.450709212
25	206348	136	5956.2125437361
25	208191	137	5952.9743782602
25	210022	138	5949.6636765207
25	211853	139	5946.3632769566
25	213684	140	5943.0628773925
25	215531	141	5939.7624778284
25	217362	142	5936.4620782643
25	219209	143	5933.1616787002
25	221028	144	5929.8612791361
25	222863	145	5926.4088551428
25	224698	146	5921.9869190119
25	226533	147	5920.3284029917
25	228368	148	5918.6698869715
26	1035	10	6531.0981080452
26	1268	11	6531.0981080452
26	1502	12	6528.6326640689
26	1736	13	6524.5971693204
26	2050	14	6518.8685031833
26	2365	15	6511.5695668275
26	2680	16	6502.7342599377
26	3087	17	6492.3442239224
26	3495	18	6481.7517369553
26	3903	19	6471.3544287096
26	4415	20	6461.5497980551
26	4928	21	6452.0576203932
26	5441	22	6443.0644486436
26	6070	23	6434.2608715595
26	6700	24	6425.5166932193
26	7330	25	6417.4322611499
26	8029	26	6409.3433655348
26	8788	27	6401.3486834124
26	9547	28	6393.637206944
26	10446	29	6385.9542309439
26	11354	30	6379.0645508536
26	12262	31	6372.1807098412
26	13554	32	6365.3061887575
26	15463	33	6358.3829438976
26	17289	34	6352.3606763425
26	19470	35	6348.394558552
26	21229	36	6344.7063444332
26	23621	37	6341.0181303144
26	25392	38	6337.3299161956
26	27205	39	6333.6417020768
26	28976	40	6329.5231645582
26	30747	41	6324.9313842806
26	32518	42	6320.3396040029
26	34301	43	6318.8522998987
26	36096	44	6313.8179911699
26	37891	45	6308.3299390128
26	39686	46	6302.8418868557
26	41481	47	6297.3538346986
26	43276	48	6291.8657825415
26	45071	49	6286.3777303844
26	46878	50	6280.8896782273
26	48685	51	6275.4016260702
26	50492	52	6269.9135739131
26	52299	53	6264.1399319879
26	54106	54	6258.3607965593
26	55913	55	6252.5816611307
26	57732	56	6246.802525702
26	59551	57	6241.0233902734
26	61370	58	6234.9270568417
26	63189	59	6228.8243752303
26	65016	60	6222.7216936189
26	66843	61	6216.6190120075
26	68682	62	6210.5163303961
26	70521	63	6204.4136487847
26	72360	64	6198.3109671733
26	74199	65	6192.2082855619
26	76038	66	6186.1056039505
26	77877	67	6180.0029223392
26	79728	68	6173.9002407278
26	81579	69	6167.7975591164
26	83430	70	6161.694877505
26	85281	71	6155.5921958936
26	87132	72	6149.4895142822
26	88967	73	6143.3868326708
26	90830	74	6137.2841510594
26	92693	75	6131.181469448
26	94556	76	6125.0787878366
26	96419	77	6118.9761062253
26	98282	78	6112.8734246139
26	100145	79	6106.7707430025
26	102036	80	6100.6680613911
26	103927	81	6094.5653797797
26	105818	82	6088.4375996111
26	107693	83	6082.2774934888
26	109568	84	6076.1173873664
26	111443	85	6069.957281244
26	113318	86	6063.7971751217
26	115209	87	6057.6370689993
26	117100	88	6051.4769628769
26	118991	89	6045.3168567545
26	120882	90	6039.1567506322
26	122773	91	6032.9966445098
26	124664	92	6026.8365383874
26	126555	93	6020.6764855491
26	128446	94	6014.478175891
26	130337	95	6008.279866233
26	132228	96	6002.0815565749
26	134119	97	5995.8832469169
26	135998	98	5989.6849372588
26	137877	99	5983.4866276008
26	139756	100	5977.2883179427
26	141635	101	5971.0900082847
26	143514	102	5964.8916986266
26	145393	103	5958.6933889686
26	147260	104	5952.5088317477
26	149127	105	5946.6733758878
26	150994	106	5943.7371159543
26	152861	107	5937.6142481437
26	154728	108	5931.4083020731
26	156595	109	5925.2023560026
26	158450	110	5918.9964099321
26	160285	111	5912.7904638616
26	162132	112	5906.584517791
26	163979	113	5900.3785717205
26	165826	114	5894.17262565
26	167673	115	5887.9666795795
26	169508	116	5881.760733509
26	171331	117	5875.5547874384
26	173166	118	5869.3488413679
26	175001	119	5863.1428952974
26	176836	120	5856.9369492269
26	178671	121	5850.7310031563
26	180506	122	5844.5250570858
26	182341	123	5838.3191110153
26	184188	124	5832.1131649448
26	186035	125	5825.9072188742
26	187866	126	5819.7012728037
26	189697	127	5813.4953267332
26	191528	128	5807.2893806627
26	193371	129	5801.0834345922
26	195230	130	5794.8774885216
26	197101	131	5787.1415424511
26	198960	132	5780.9355963806
26	200819	133	5774.7296503101
26	202678	134	5768.5237042395
26	204521	135	5762.317758169
26	206348	136	5756.1118120985
26	208191	137	5749.905866028
26	210022	138	5743.6976192251
26	211853	139	5737.5252617968
26	213684	140	5731.3529043685
26	215531	141	5725.1805469403
26	217362	142	5719.008189512
26	219209	143	5712.8358320838
26	221028	144	5706.6634746555
26	222863	145	5700.673906038
26	224698	146	5696.4536323906
26	226533	147	5689.6543069268
26	228368	148	5682.8549814631
27	1268	11	3.8961603405194
27	1502	12	5.9431185399189
27	1736	13	8.0030716841232
27	2050	14	9.8785809574073
27	2365	15	11.785061293136
27	2680	16	13.70330721112
27	3087	17	13.890208489886
27	3495	18	13.960404336064
27	3903	19	13.936193579829
27	4415	20	13.876016220436
27	4928	21	13.924580276464
27	5441	22	13.936363788142
27	6070	23	13.924611387956
27	6700	24	13.874047666781
27	7330	25	13.922268225446
27	8029	26	13.912634662511
27	8788	27	13.888621817816
27	9547	28	13.944497356312
27	10446	29	13.947440151037
27	11354	30	13.92052743519
27	12262	31	13.953315614574
27	13554	32	13.904887617189
27	15463	33	9.4048876171885
27	17289	34	7
27	19470	35	7
27	21229	36	7
27	23621	37	7
27	25392	38	7
27	27205	39	7
27	28976	40	7
27	30747	41	7
27	32518	42	7
27	34301	43	7
27	36096	44	7
27	37891	45	7
27	39686	46	7
27	41481	47	7
27	43276	48	7
27	45071	49	7
27	46878	50	7
27	48685	51	7
27	50492	52	7
27	52299	53	7
27	54106	54	7
27	55913	55	7
27	57732	56	7
27	59551	57	7
27	61370	58	7
27	63189	59	7
27	65016	60	7
27	66843	61	7
27	68682	62	7
27	70521	63	7
27	72360	64	7
27	74199	65	7
27	76038	66	7
27	77877	67	7
27	79728	68	7
27	81579	69	7
27	83430	70	7
27	85281	71	7
27	87132	72	7
27	88967	73	7
27	90830	74	7
27	92693	75	7
27	94556	76	7
27	96419	77	7
27	98282	78	7
27	100145	79	7
27	102036	80	7
27	103927	81	7
27	105818	82	7
27	107693	83	7
27	109568	84	7
27	111443	85	7
27	113318	86	7
27	115209	87	7
27	117100	88	7
27	118991	89	7
27	120882	90	7
27	122773	91	7
27	124664	92	7
27	126555	93	7
27	128446	94	7
27	130337	95	7
27	132228	96	7
27	134119	97	7
27	135998	98	7
27	137877	99	7
27	139756	100	7
27	141635	101	7
27	143514	102	7
27	145393	103	7
27	147260	104	7
27	149127	105	7
27	150994	106	7
27	152861	107	7
27	154728	108	7
27	156595	109	7
27	158450	110	7
27	160285	111	7
27	162132	112	7
27	163979	113	7
27	165826	114	7
27	167673	115	7
27	169508	116	7
27	171331	117	7
27	173166	118	7
27	175001	119	7
27	176836	120	7
27	178671	121	7
27	180506	122	7
27	182341	123	7
27	184188	124	7
27	186035	125	7
27	187866	126	7
27	189697	127	7
27	191528	128	7
27	193371	129	7
27	195230	130	7
27	197101	131	7
27	198960	132	7
27	200819	133	7
27	202678	134	7
27	204521	135	7
27	206348	136	7
27	208191	137	7
27	210022	138	7
27	211853	139	7
27	213684	140	7
27	215531	141	7
27	217362	142	7
27	219209	143	7
27	221028	144	7
27	222863	145	7
27	224698	146	7
27	226533	147	7
27	228368	148	7
28	1502	12	2.0469581993995
28	1736	13	2.0599531442043
28	2050	14	1.8755092732841
28	2365	15	1.9064803357283
28	2680	16	1.9182459179847
28	3087	17	0.18690127876519
28	3495	18	0.070195846178104
28	3903	19	-0.024210756234826
28	4415	20	-0.0601773593924
28	4928	21	0.048564056027681
28	5441	22	0.011783511678223
28	6070	23	-0.01175240018638
28	6700	24	-0.050563721174839
28	7330	25	0.048220558664761
28	8029	26	-0.0096335629350506
28	8788	27	-0.024012844695244
28	9547	28	0.055875538496766
28	10446	29	0.002942794724369
28	11354	30	-0.026912715847139
28	12262	31	0.032788179384079
28	13554	32	-0.048427997385152
28	15463	33	-4.5
28	17289	34	-2.4048876171885
28	19470	35	0
28	21229	36	0
28	23621	37	0
28	25392	38	0
28	27205	39	0
28	28976	40	0
28	30747	41	0
28	32518	42	0
28	34301	43	0
28	36096	44	0
28	37891	45	0
28	39686	46	0
28	41481	47	0
28	43276	48	0
28	45071	49	0
28	46878	50	0
28	48685	51	0
28	50492	52	0
28	52299	53	0
28	54106	54	0
28	55913	55	0
28	57732	56	0
28	59551	57	0
28	61370	58	0
28	63189	59	0
28	65016	60	0
28	66843	61	0
28	68682	62	0
28	70521	63	0
28	72360	64	0
28	74199	65	0
28	76038	66	0
28	77877	67	0
28	79728	68	0
28	81579	69	0
28	83430	70	0
28	85281	71	0
28	87132	72	0
28	88967	73	0
28	90830	74	0
28	92693	75	0
28	94556	76	0
28	96419	77	0
28	98282	78	0
28	100145	79	0
28	102036	80	0
28	103927	81	0
28	105818	82	0
28	107693	83	0
28	109568	84	0
28	111443	85	0
28	113318	86	0
28	115209	87	0
28	117100	88	0
28	118991	89	0
28	120882	90	0
28	122773	91	0
28	124664	92	0
28	126555	93	0
28	128446	94	0
28	130337	95	0
28	132228	96	0
28	134119	97	0
28	135998	98	0
28	137877	99	0
28	139756	100	0
28	141635	101	0
28	143514	102	0
28	145393	103	0
28	147260	104	0
28	149127	105	0
28	150994	106	0
28	152861	107	0
28	154728	108	0
28	156595	109	0
28	158450	110	0
28	160285	111	0
28	162132	112	0
28	163979	113	0
28	165826	114	0
28	167673	115	0
28	169508	116	0
28	171331	117	0
28	173166	118	0
28	175001	119	0
28	176836	120	0
28	178671	121	0
28	180506	122	0
28	182341	123	0
28	184188	124	0
28	186035	125	0
28	187866	126	0
28	189697	127	0
28	191528	128	0
28	193371	129	0
28	195230	130	0
28	197101	131	0
28	198960	132	0
28	200819	133	0
28	202678	134	0
28	204521	135	0
28	206348	136	0
28	208191	137	0
28	210022	138	0
28	211853	139	0
28	213684	140	0
28	215531	141	0
28	217362	142	0
28	219209	143	0
28	221028	144	0
28	222863	145	0
28	224698	146	0
28	226533	147	0
28	228368	148	0
29	1502	12	4.3479287070716
29	1736	13	5.5165352628411
29	2050	14	6.1406935669702
29	2365	15	7.2445020940405
29	2680	16	8.3437597808429
29	3087	17	2.6532937628312
29	3495	18	2.270963778215
29	3903	19	1.951004715823
29	4415	20	1.8249511816193
29	4928	21	2.1941071389215
29	5441	22	2.0719137351531
29	6070	23	1.991698821298
29	6700	24	1.8569243370768
29	7330	25	2.1926918025389
29	8029	26	1.9976163105569
29	8788	27	1.9470980573295
29	9547	28	2.2209439676854
29	10446	29	2.0433595908944
29	11354	30	1.9404334490117
29	12262	31	2.1443266191501
29	13554	32	1.8668420637234
29	15463	33	0.973
29	17289	34	0.973
29	19470	35	1.47936595584
29	21229	36	1.47936595584
29	23621	37	1.47936595584
29	25392	38	1.47936595584
29	27205	39	1.47936595584
29	28976	40	1.47936595584
29	30747	41	1.47936595584
29	32518	42	1.47936595584
29	34301	43	1.47936595584
29	36096	44	1.47936595584
29	37891	45	1.47936595584
29	39686	46	1.47936595584
29	41481	47	1.47936595584
29	43276	48	1.47936595584
29	45071	49	1.47936595584
29	46878	50	1.47936595584
29	48685	51	1.47936595584
29	50492	52	1.47936595584
29	52299	53	1.47936595584
29	54106	54	1.47936595584
29	55913	55	1.47936595584
29	57732	56	1.47936595584
29	59551	57	1.47936595584
29	61370	58	1.47936595584
29	63189	59	1.47936595584
29	65016	60	1.47936595584
29	66843	61	1.47936595584
29	68682	62	1.47936595584
29	70521	63	1.47936595584
29	72360	64	1.47936595584
29	74199	65	1.47936595584
29	76038	66	1.47936595584
29	77877	67	1.47936595584
29	79728	68	1.47936595584
29	81579	69	1.47936595584
29	83430	70	1.47936595584
29	85281	71	1.47936595584
29	87132	72	1.47936595584
29	88967	73	1.47936595584
29	90830	74	1.47936595584
29	92693	75	1.47936595584
29	94556	76	1.47936595584
29	96419	77	1.47936595584
29	98282	78	1.47936595584
29	100145	79	1.47936595584
29	102036	80	1.47936595584
29	103927	81	1.47936595584
29	105818	82	1.47936595584
29	107693	83	1.47936595584
29	109568	84	1.47936595584
29	111443	85	1.47936595584
29	113318	86	1.47936595584
29	115209	87	1.47936595584
29	117100	88	1.47936595584
29	118991	89	1.47936595584
29	120882	90	1.47936595584
29	122773	91	1.47936595584
29	124664	92	1.47936595584
29	126555	93	1.47936595584
29	128446	94	1.47936595584
29	130337	95	1.47936595584
29	132228	96	1.47936595584
29	134119	97	1.47936595584
29	135998	98	1.47936595584
29	137877	99	1.47936595584
29	139756	100	1.47936595584
29	141635	101	1.47936595584
29	143514	102	1.47936595584
29	145393	103	1.47936595584
29	147260	104	1.47936595584
29	149127	105	1.47936595584
29	150994	106	1.47936595584
29	152861	107	1.47936595584
29	154728	108	1.47936595584
29	156595	109	1.47936595584
29	158450	110	1.47936595584
29	160285	111	1.47936595584
29	162132	112	1.47936595584
29	163979	113	1.47936595584
29	165826	114	1.47936595584
29	167673	115	1.47936595584
29	169508	116	1.47936595584
29	171331	117	1.47936595584
29	173166	118	1.47936595584
29	175001	119	1.47936595584
29	176836	120	1.47936595584
29	178671	121	1.47936595584
29	180506	122	1.47936595584
29	182341	123	1.47936595584
29	184188	124	1.47936595584
29	186035	125	1.47936595584
29	187866	126	1.47936595584
29	189697	127	1.47936595584
29	191528	128	1.47936595584
29	193371	129	1.47936595584
29	195230	130	1.47936595584
29	197101	131	1.47936595584
29	198960	132	1.47936595584
29	200819	133	1.47936595584
29	202678	134	1.47936595584
29	204521	135	1.47936595584
29	206348	136	1.47936595584
29	208191	137	1.47936595584
29	210022	138	1.47936595584
29	211853	139	1.47936595584
29	213684	140	1.47936595584
29	215531	141	1.47936595584
29	217362	142	1.47936595584
29	219209	143	1.47936595584
29	221028	144	1.47936595584
29	222863	145	1.47936595584
29	224698	146	1.47936595584
29	226533	147	1.47936595584
29	228368	148	1.47936595584
32	1736	13	6544.7430498517
32	2050	14	6544.7430498517
32	2365	15	6542.8786544729
32	2680	16	6539.8417355186
32	3087	17	6535.5772621631
32	3495	18	6530.1853358183
32	3903	19	6523.6347191901
32	4415	20	6515.920450262
32	4928	21	6506.7955573436
32	5441	22	6497.4704456749
32	6070	23	6487.5033512161
32	6700	24	6477.2521637211
32	7330	25	6466.5218427154
32	8029	26	6455.6697431643
32	8788	27	6444.7417939395
32	9547	28	6433.3612257679
32	10446	29	6421.9550282544
32	11354	30	6410.4393649627
32	12262	31	6398.8501967189
32	13554	32	6387.2375320757
32	15463	33	6375.1607637962
32	17289	34	6365.2497971098
32	19470	35	6358.7227857136
32	21229	36	6352.6534359918
32	23621	37	6346.5840862701
32	25392	38	6340.516437797
32	27205	39	6334.5842791467
32	28976	40	6328.6521204964
32	30747	41	6322.7199618461
32	32518	42	6316.7878031958
32	34301	43	6310.8556445454
32	36096	44	6304.9234858951
32	37891	45	6298.9913272448
32	39686	46	6293.458024542
32	41481	47	6288.1940922171
32	43276	48	6282.9301598923
32	45071	49	6276.2704388819
32	46878	50	6271.9346983297
32	48685	51	6267.5989577774
32	50492	52	6263.2632172252
32	52299	53	6258.927476673
32	54106	54	6254.5917361208
32	55913	55	6250.2559955686
32	57732	56	6245.9202550163
32	59551	57	6241.5845144641
32	61370	58	6237.2891063736
32	63189	59	6233.3496957181
32	65016	60	6229.4102850626
32	66843	61	6225.4708744071
32	68682	62	6221.5314637516
32	70521	63	6217.6448438475
32	72360	64	6214.2280266494
32	74199	65	6210.8112094513
32	76038	66	6207.3943922532
32	77877	67	6203.9775750551
32	79728	68	6200.560757857
32	81579	69	6197.1439406589
32	83430	70	6193.7271234608
32	85281	71	6190.3103062627
32	87132	72	6186.8934890646
32	88967	73	6183.4766718665
32	90830	74	6180.0598546684
32	92693	75	6176.6430374703
32	94556	76	6173.2262202722
32	96419	77	6169.8094030741
32	98282	78	6166.392585876
32	100145	79	6162.9757686779
32	102036	80	6159.5589514798
32	103927	81	6156.1421342817
32	105818	82	6152.7253170836
32	107693	83	6149.3084998855
32	109568	84	6145.8916826874
32	111443	85	6142.4748654893
32	113318	86	6139.0580482912
32	115209	87	6135.6412310931
32	117100	88	6132.2827777262
32	118991	89	6128.9706099804
32	120882	90	6125.6584422346
32	122773	91	6122.3462744888
32	124664	92	6119.034106743
32	126555	93	6115.7219389972
32	128446	94	6112.4097712513
32	130337	95	6109.0976035055
32	132228	96	6105.7854357597
32	134119	97	6102.4732680139
32	135998	98	6099.1611002681
32	137877	99	6095.8658019518
32	139756	100	6092.5843438975
32	141635	101	6089.3028858433
32	143514	102	6086.021427789
32	145393	103	6082.7399697348
32	147260	104	6079.4585116805
32	149127	105	6076.1770536262
32	150994	106	6072.895595572
32	152861	107	6069.6141375177
32	154728	108	6066.3326794634
32	156595	109	6063.0512214092
32	158450	110	6059.6732379938
32	160285	111	6055.7829340872
32	162132	112	6050.0368638534
32	163979	113	6046.7986983775
32	165826	114	6043.5605329015
32	167673	115	6040.3223674256
32	169508	116	6037.0842019497
32	171331	117	6033.8460364738
32	173166	118	6030.6078709979
32	175001	119	6027.369705522
32	176836	120	6024.131540046
32	178671	121	6020.8933745701
32	180506	122	6017.6552090942
32	182341	123	6014.4170436183
32	184188	124	6011.1788781424
32	186035	125	6007.9407126665
32	187866	126	6004.7025471905
32	189697	127	6001.4643817146
32	191528	128	5998.2262162387
32	193371	129	5994.9880507628
32	195230	130	5991.7498852869
32	197101	131	5988.511719811
32	198960	132	5985.273554335
32	200819	133	5982.0353888591
32	202678	134	5978.7972233832
32	204521	135	5975.5590579073
32	206348	136	5975.2508924314
32	208191	137	5972.0127269555
32	210022	138	5968.7745614795
32	211853	139	5965.5363960036
32	213684	140	5962.2982305277
32	215531	141	5959.0600650518
32	217362	142	5955.8218995759
32	219209	143	5952.5659241603
32	221028	144	5949.2655245962
32	222863	145	5945.9651250321
32	224698	146	5942.664725468
32	226533	147	5939.3643259039
32	228368	148	5936.0639263398
33	1736	13	6531.1053860569
33	2050	14	6531.1053860569
33	2365	15	6528.5664154057
33	2680	16	6524.4306788648
33	3087	17	6518.6232343629
33	3495	18	6511.2804019905
33	3903	19	6502.3596421801
33	4415	20	6491.8541975594
33	4928	21	6481.2919144179
33	5441	22	6470.8817897561
33	6070	23	6461.1299910378
33	6700	24	6451.6390997698
33	7330	25	6442.6696629366
33	8029	26	6433.8629852904
33	8788	27	6425.1415503234
33	9547	28	6417.059591564
33	10446	29	6408.9594320187
33	11354	30	6400.9855970048
33	12262	31	6393.275411985
33	13554	32	6385.6358495043
33	15463	33	6378.7555203205
33	17289	34	6373.1090831483
33	19470	35	6369.3905397472
33	21229	36	6365.9327335651
33	23621	37	6362.4749273829
33	25392	38	6359.0142640088
33	27205	39	6355.32604989
33	28976	40	6351.6378357712
33	30747	41	6347.9496216524
33	32518	42	6344.2614075336
33	34301	43	6340.5731934148
33	36096	44	6336.884979296
33	37891	45	6333.1967651772
33	39686	46	6328.9692237038
33	41481	47	6324.3774434261
33	43276	48	6319.7856631485
33	45071	49	6318.6439784813
33	46878	50	6313.1559263242
33	48685	51	6307.6678741671
33	50492	52	6302.17982201
33	52299	53	6296.6917698529
33	54106	54	6291.2037176958
33	55913	55	6285.7156655387
33	57732	56	6280.2276133816
33	59551	57	6274.7395612245
33	61370	58	6269.2218870151
33	63189	59	6263.4427515865
33	65016	60	6257.6636161579
33	66843	61	6251.8844807292
33	68682	62	6246.1053453006
33	70521	63	6240.2935262518
33	72360	64	6234.1908446404
33	74199	65	6228.088163029
33	76038	66	6221.9854814176
33	77877	67	6215.8827998062
33	79728	68	6209.7801181948
33	81579	69	6203.6774365834
33	83430	70	6197.574754972
33	85281	71	6191.4720733606
33	87132	72	6185.3693917492
33	88967	73	6179.2667101378
33	90830	74	6173.1640285265
33	92693	75	6167.0613469151
33	94556	76	6160.9586653037
33	96419	77	6154.8559836923
33	98282	78	6148.7533020809
33	100145	79	6142.6506204695
33	102036	80	6136.5479388581
33	103927	81	6130.4452572467
33	105818	82	6124.3425756353
33	107693	83	6118.2398940239
33	109568	84	6112.1372124126
33	111443	85	6106.0345308012
33	113318	86	6099.9318491898
33	115209	87	6093.8291675784
33	117100	88	6087.6944598609
33	118991	89	6081.5343537385
33	120882	90	6075.3742476161
33	122773	91	6069.2141414938
33	124664	92	6063.0540353714
33	126555	93	6056.893929249
33	128446	94	6050.7338231266
33	130337	95	6044.5737170043
33	132228	96	6038.4136108819
33	134119	97	6032.2535047595
[...]
71	32518	42	1.47936595584
71	34301	43	1.47936595584
71	36096	44	1.47936595584
71	37891	45	1.47936595584
71	39686	46	1.47936595584
71	41481	47	1.47936595584
71	43276	48	1.47936595584
71	45071	49	1.47936595584
71	46878	50	1.47936595584
71	48685	51	1.47936595584
71	50492	52	1.47936595584
71	52299	53	1.47936595584
71	54106	54	1.47936595584
71	55913	55	1.47936595584
71	57732	56	1.47936595584
71	59551	57	1.47936595584
71	61370	58	1.47936595584
71	63189	59	1.47936595584
71	65016	60	1.47936595584
71	66843	61	1.47936595584
71	68682	62	1.47936595584
71	70521	63	1.47936595584
71	72360	64	1.47936595584
71	74199	65	1.47936595584
71	76038	66	1.47936595584
71	77877	67	1.47936595584
71	79728	68	1.47936595584
71	81579	69	1.47936595584
71	83430	70	1.47936595584
71	85281	71	1.47936595584
71	87132	72	1.47936595584
71	88967	73	1.47936595584
71	90830	74	1.47936595584
71	92693	75	1.47936595584
71	94556	76	1.47936595584
71	96419	77	1.47936595584
71	98282	78	1.47936595584
71	100145	79	1.47936595584
71	102036	80	1.47936595584
71	103927	81	1.47936595584
71	105818	82	1.47936595584
71	107693	83	1.47936595584
71	109568	84	1.47936595584
71	111443	85	1.47936595584
71	113318	86	1.47936595584
71	115209	87	1.47936595584
71	117100	88	1.47936595584
71	118991	89	1.47936595584
71	120882	90	1.47936595584
71	122773	91	1.47936595584
71	124664	92	1.47936595584
71	126555	93	1.47936595584
71	128446	94	1.47936595584
71	130337	95	1.47936595584
71	132228	96	1.47936595584
71	134119	97	1.47936595584
71	135998	98	1.47936595584
71	137877	99	1.47936595584
71	139756	100	1.47936595584
71	141635	101	1.47936595584
71	143514	102	1.47936595584
71	145393	103	1.47936595584
71	147260	104	1.47936595584
71	149127	105	1.47936595584
71	150994	106	1.47936595584
71	152861	107	1.47936595584
71	154728	108	1.47936595584
71	156595	109	1.47936595584
71	158450	110	1.47936595584
71	160285	111	1.47936595584
71	162132	112	1.47936595584
71	163979	113	1.47936595584
71	165826	114	1.47936595584
71	167673	115	1.47936595584
71	169508	116	1.47936595584
71	171331	117	1.47936595584
71	173166	118	1.47936595584
71	175001	119	1.47936595584
71	176836	120	1.47936595584
71	178671	121	1.47936595584
71	180506	122	1.47936595584
71	182341	123	1.47936595584
71	184188	124	1.47936595584
71	186035	125	1.47936595584
71	187866	126	1.47936595584
71	189697	127	1.47936595584
71	191528	128	1.47936595584
71	193371	129	1.47936595584
71	195230	130	1.47936595584
71	197101	131	1.47936595584
71	198960	132	1.47936595584
71	200819	133	1.47936595584
71	202678	134	1.47936595584
71	204521	135	1.47936595584
71	206348	136	1.47936595584
71	208191	137	1.47936595584
71	210022	138	1.47936595584
71	211853	139	1.47936595584
71	213684	140	1.47936595584
71	215531	141	1.47936595584
71	217362	142	1.47936595584
71	219209	143	1.47936595584
71	221028	144	1.47936595584
71	222863	145	1.47936595584
71	224698	146	1.47936595584
71	226533	147	1.47936595584
71	228368	148	1.47936595584
74	12262	31	6544.7243726821
74	13554	32	6544.7243726821
74	15463	33	6542.7463987264
74	17289	34	6539.5623937226
74	19470	35	6535.2462319356
74	21229	36	6529.7529050279
74	23621	37	6521.2288610578
74	25392	38	6514.233412702
74	27205	39	6505.4406590655
74	28976	40	6496.178547955
74	30747	41	6486.3477036234
74	32518	42	6476.1772102791
74	34301	43	6465.5919277637
74	36096	44	6454.8034300599
74	37891	45	6444.0234322657
74	39686	46	6432.6912932748
74	41481	47	6421.3464839413
74	43276	48	6409.9636600933
74	45071	49	6398.3392392888
74	46878	50	6386.7056973974
74	48685	51	6374.5851023209
74	50492	52	6362.4411310632
74	52299	53	6350.3180505017
74	54106	54	6338.2193514711
74	55913	55	6326.3632207047
74	57732	56	6314.5154260205
74	59551	57	6302.6445924224
74	61370	58	6291.2101014883
74	63189	59	6280.6855348346
74	65016	60	6269.47535521
74	66843	61	6260.8299208923
74	68682	62	6252.1934676229
74	70521	63	6243.5512924684
74	72360	64	6234.9204393336
74	74199	65	6227.0756291018
74	76038	66	6219.2187705015
74	77877	67	6211.8649122637
74	79728	68	6205.049381453
74	81579	69	6198.2446382354
74	83430	70	6191.4253673699
74	85281	71	6184.6139820533
74	87132	72	6177.7959984007
74	88967	73	6170.9843970728
74	90830	74	6164.1741360264
74	92693	75	6157.3679859716
74	94556	76	6150.5515498018
74	96419	77	6143.739756809
74	98282	78	6136.921438035
74	100145	79	6130.1408874723
74	102036	80	6123.5327420718
74	103927	81	6116.9160184555
74	105818	82	6110.3089724328
74	107693	83	6103.6982171445
74	109568	84	6097.085043365
74	111443	85	6090.5273389516
74	113318	86	6084.0249325016
74	115209	87	6077.5113329813
74	117100	88	6071.0077846611
74	118991	89	6064.4977389322
74	120882	90	6057.9825983421
74	122773	91	6048.5752838916
74	124664	92	6041.9779014308
74	126555	93	6042.2358734928
74	128446	94	6035.9252493665
74	130337	95	6029.4753748371
74	132228	96	6023.0305084872
74	134119	97	6016.5917360296
74	135998	98	6010.1529342887
74	137877	99	6003.7161960805
74	139756	100	5997.2606988192
74	141635	101	5990.8149901276
74	143514	102	5984.3664869924
74	145393	103	5977.9196525994
74	147260	104	5971.4764334517
74	149127	105	5965.0324359382
74	150994	106	5958.5865835195
74	152861	107	5952.1165913978
74	154728	108	5945.5482179487
74	156595	109	5938.9725825808
74	158450	110	5932.4095590643
74	160285	111	5924.9493688663
74	162132	112	5919.9834834727
74	163979	113	5916.3674475441
74	165826	114	5910.4191230306
74	167673	115	5904.612522472
74	169508	116	5901.2806533737
74	171331	117	5900.3752042843
74	173166	118	5902.9138765089
74	175001	119	5908.7852487723
74	176836	120	5917.1855126452
74	178671	121	5927.6736621891
74	180506	122	5938.6469426358
74	182341	123	5949.1429227455
74	184188	124	5957.4369633641
74	186035	125	5963.5654738637
74	187866	126	5961.9879036744
74	189697	127	5960.1394633254
74	191528	128	5953.0725466411
74	193371	129	5942.3838333535
74	195230	130	5931.2224361327
74	197101	131	5919.6109635352
74	198960	132	5907.5584037635
74	200819	133	5895.5186597047
74	202678	134	5884.0270155706
74	204521	135	5875.1798784872
74	206348	136	5868.8505071757
74	208191	137	5864.8155959595
74	210022	138	5860.8631574909
74	211853	139	5855.0372523751
74	213684	140	5847.9105049565
74	215531	141	5838.6838637874
74	217362	142	5827.6890206042
74	219209	143	5815.6207377465
74	221028	144	5803.6848498851
74	222863	145	5791.8505198595
74	224698	146	5780.0224367582
74	226533	147	5768.1559625508
74	228368	148	5756.2885466612
75	12262	31	6531.0799511164
75	13554	32	6531.0799511164
75	15463	33	6528.3863069038
75	17289	34	6524.0502656597
75	19470	35	6518.1724308253
75	21229	36	6510.6915091526
75	23621	37	6504.6513472995
75	25392	38	6495.1234732978
75	27205	39	6484.7199662377
75	28976	40	6474.3841326042
75	30747	41	6464.580200784
75	32518	42	6455.1349093544
75	34301	43	6446.1679385713
75	36096	44	6437.4129344677
75	37891	45	6428.6816902074
75	39686	46	6420.6326942886
75	41481	47	6412.5746988742
75	43276	48	6404.6358557957
75	45071	49	6396.8993620398
75	46878	50	6389.156797854
75	48685	51	6382.2224714761
75	50492	52	6375.3031428727
75	52299	53	6368.3957172612
75	54106	54	6361.4668816916
75	55913	55	6354.0966373118
75	57732	56	6346.7315749737
75	59551	57	6339.3521907266
75	61370	58	6331.3871415914
75	63189	59	6322.2075440003
75	65016	60	6315.3711528529
75	66843	61	6304.4277063166
75	68682	62	6293.4956280492
75	70521	63	6282.5563069826
75	72360	64	6271.6092742265
75	74199	65	6260.1009178561
75	76038	66	6248.5748864989
75	77877	67	6236.7287335679
75	79728	68	6224.5551270104
75	81579	69	6212.4007887852
75	83430	70	6200.2205019035
75	85281	71	6188.0542998482
75	87132	72	6175.8763121303
75	88967	73	6163.709724245
75	90830	74	6151.5455303125
75	92693	75	6139.3886792557
75	94556	76	6127.2134555848
75	96419	77	6115.0465253558
75	98282	78	6102.8679390586
75	100145	79	6090.6760416277
75	102036	80	6078.387241549
75	103927	81	6066.0824890403
75	105818	82	6053.7957334133
75	107693	83	6041.5020798717
75	109568	84	6029.2039287967
75	111443	85	6016.9004089228
75	113318	86	6004.6178908347
75	115209	87	5992.3142299453
75	117100	88	5980.0295549571
75	118991	89	5967.732606891
75	120882	90	5955.4260350458
75	122773	91	5946.2255174807
75	124664	92	5934.7432331825
75	126555	93	5920.9755750061
75	128446	94	5908.8812600951
75	130337	95	5896.5200717036
75	132228	96	5884.168481491
75	134119	97	5871.8285702265
75	135998	98	5859.4886028407
75	137877	99	5847.1525902165
75	139756	100	5834.7806258558
75	141635	101	5822.4274212948
75	143514	102	5810.068861181
75	145393	103	5797.7134992126
75	147260	104	5785.365065864
75	149127	105	5773.0151407768
75	150994	106	5760.6616607627
75	152861	107	5748.2850235887
75	154728	108	5736.0009507476
75	156595	109	5723.7032967757
75	158450	110	5711.4292292978
75	160285	111	5700.2081905679
75	162132	112	5688.2402596462
75	163979	113	5674.8097911462
75	165826	114	5662.20688825
75	167673	115	5649.9042603704
75	169508	116	5639.2646080188
75	171331	117	5628.2915714293
75	173166	118	5617.6201619145
75	175001	119	5608.327756633
75	176836	120	5601.449795897
75	178671	121	5598.3781980208
75	180506	122	5598.6644148265
75	182341	123	5601.6951799146
75	184188	124	5608.7968294495
75	186035	125	5617.9573398804
75	187866	126	5628.5793377283
75	189697	127	5642.0091428973
75	191528	128	5653.5668139885
75	193371	129	5662.4341444202
75	195230	130	5670.7751388635
75	197101	131	5678.4189751574
75	198960	132	5685.4294230431
75	200819	133	5692.4324165882
75	202678	134	5699.1166043334
75	204521	135	5704.2625977685
75	206348	136	5707.7274339905
75	208191	137	5709.9100087332
75	210022	138	5712.0479721013
75	211853	139	5715.1281885246
75	213684	140	5719.8677577066
75	215531	141	5725.2154910391
75	217362	142	5731.5880689143
75	219209	143	5738.5828091802
75	221028	144	5745.7887577806
75	222863	145	5753.1815794244
75	224698	146	5760.570498659
75	226533	147	5767.8920534116
75	228368	148	5775.189651954
76	13554	32	4.3050792244321
76	15463	33	6.1975557422044
76	17289	34	8.1388862196344
76	19470	35	9.9306693591615
76	21229	36	10.92611946692
76	23621	37	12.720676069599
76	25392	38	13.922218923441
76	27205	39	13.900009780854
76	28976	40	13.929364156709
76	30747	41	13.910889271128
76	32518	42	13.948942170185
76	34301	43	13.879989326852
76	36096	44	13.883152721936
76	37891	45	13.895763937477
76	39686	46	13.978786378177
76	41481	47	13.964837945153
76	43276	48	13.899732435865
76	45071	49	13.982690734894
76	46878	50	13.953729418046
76	48685	51	13.960354656435
76	50492	52	13.889144299421
76	52299	53	13.893440325148
76	54106	54	13.971754168042
76	55913	55	13.917852461482
76	57732	56	13.964087803089
76	59551	57	13.928772129295
76	61370	58	13.886031354256
76	63189	59	13.953156579989
76	65016	60	13.885909611431
76	66843	61	13.962800811117
76	68682	62	13.885263822661
76	70521	63	13.904931934965
76	72360	64	13.880659426928
76	74199	65	13.914225475967
76	76038	66	13.963246368398
76	77877	67	13.947914536211
76	79728	68	13.874917799486
76	81579	69	13.984783096982
76	83430	70	13.959030305115
76	85281	71	13.946893814567
76	87132	72	13.973691600822
76	88967	73	13.964400911396
76	90830	74	13.870074563604
76	92693	75	13.948752973857
76	94556	76	13.978630988675
76	96419	77	13.899822444615
76	98282	78	13.975632182895
76	100145	79	13.921539206137
76	102036	80	13.981147974252
76	103927	81	13.99316570319
76	105818	82	13.89211074234
76	107693	83	13.976645737232
76	109568	84	13.918097764996
76	111443	85	13.941322746153
76	113318	86	13.931142031602
76	115209	87	13.920932930312
76	117100	88	13.934545292284
76	118991	89	13.879058585053
76	120882	90	13.909695935622
76	122773	91	12.437721148261
76	124664	92	12.748387240858
76	126555	93	13.961925424889
76	128446	94	13.915329772236
76	130337	95	13.949327111682
76	132228	96	13.895756834489
76	134119	97	13.946293058321
76	135998	98	13.983211624979
76	137877	99	13.935213858197
76	139756	100	13.87779020099
76	141635	101	13.927945964348
76	143514	102	13.904060846972
76	145393	103	13.91523109525
76	147260	104	13.884556899101
76	149127	105	13.973084097388
76	150994	106	13.909920718714
76	152861	107	13.93029641557
76	154728	108	13.979409108949
76	156595	109	13.967278993081
76	158450	110	13.880530380621
76	160285	111	13.905309694293
76	162132	112	13.981762391226
76	163979	113	13.911381862918
76	165826	114	12.425614735845
76	167673	115	10.993513207387
76	169508	116	10.992739981748
76	171331	117	10.993895242854
76	173166	118	10.994755550874
76	175001	119	11.109224402441
76	176836	120	11.00414561003
76	178671	121	11.093239632247
76	180506	122	10.989557802898
76	182341	123	11.10593029619
76	184188	124	10.990580195577
76	186035	125	12.605112922401
76	187866	126	13.930201937419
76	189697	127	13.900469019022
76	191528	128	13.891515195789
76	193371	129	13.954524225786
76	195230	130	13.925844457424
76	197101	131	13.939074914958
76	198960	132	13.935560393708
76	200819	133	12.073607163183
76	202678	134	8.7690052768649
76	204521	135	5.9468119709055
76	206348	136	3.6244520256947
76	208191	137	5.6634817308512
76	210022	138	7.5047125230052
76	211853	139	9.522243413301
76	213684	140	11.611004157248
76	215531	141	13.604275005618
76	217362	142	13.981439988499
76	219209	143	13.884116310158
76	221028	144	13.877011245622
76	222863	145	13.993566108812
76	224698	146	13.871177745557
76	226533	147	13.920266563944
76	228368	148	13.807178902745
77	15463	33	1.8924765177723
77	17289	34	1.94133047743
77	19470	35	1.7917831395272
77	21229	36	0.99545010775823
77	23621	37	1.7945566026797
77	25392	38	1.2015428538412
77	27205	39	-0.022209142586217
77	28976	40	0.0293543758546
77	30747	41	-0.018474885581528
77	32518	42	0.038052899057512
77	34301	43	-0.068952843332662
77	36096	44	0.0031633950839733
77	37891	45	0.012611215540675
77	39686	46	0.08302244069986
77	41481	47	-0.013948433024343
77	43276	48	-0.065105509287678
77	45071	49	0.082958299028686
77	46878	50	-0.028961316847708
77	48685	51	0.0066252383892422
77	50492	52	-0.071210357013623
77	52299	53	0.0042960257269442
77	54106	54	0.078313842893111
77	55913	55	-0.053901706559117
77	57732	56	0.046235341606661
77	59551	57	-0.035315673793665
77	61370	58	-0.04274077503942
77	63189	59	0.067125225733033
77	65016	60	-0.067246968557592
77	66843	61	0.076891199685633
77	68682	62	-0.077536988456266
77	70521	63	0.019668112304061
77	72360	64	-0.024272508036811
77	74199	65	0.033566049039363
77	76038	66	0.049020892430564
77	77877	67	-0.015331832186785
77	79728	68	-0.072996736725326
77	81579	69	0.10986529749585
77	83430	70	-0.025752791867127
77	85281	71	-0.012136490547563
77	87132	72	0.026797786254901
77	88967	73	-0.0092906894255425
77	90830	74	-0.094326347792521
77	92693	75	0.078678410253486
77	94556	76	0.029878014817369
77	96419	77	-0.078808544059283
77	98282	78	0.075809738279785
77	100145	79	-0.054092976758257
77	102036	80	0.059608768115286
77	103927	81	0.01201772893779
77	105818	82	-0.10105496085016
77	107693	83	0.08453499489231
77	109568	84	-0.058547972235829
77	111443	85	0.023224981157108
77	113318	86	-0.010180714551824
77	115209	87	-0.010209101289512
77	117100	88	0.013612361971754
77	118991	89	-0.055486707231029
77	120882	90	0.030637350569014
77	122773	91	-1.471974787361
77	124664	92	0.31066609259717
77	126555	93	1.2135381840312
77	128446	94	-0.046595652652904
77	130337	95	0.033997339445632
77	132228	96	-0.053570277192629
77	134119	97	0.050536223831585
77	135998	98	0.036918566657697
77	137877	99	-0.047997766782064
77	139756	100	-0.057423657206819
77	141635	101	0.050155763358344
77	143514	102	-0.023885117375759
77	145393	103	0.011170248277486
77	147260	104	-0.030674196148757
77	149127	105	0.088527198287194
77	150994	106	-0.063163378674071
77	152861	107	0.020375696856062
77	154728	108	0.049112693378701
77	156595	109	-0.012130115868057
77	158450	110	-0.086748612460214
77	160285	111	0.024779313672333
77	162132	112	0.076452696933412
77	163979	113	-0.070380528308451
77	165826	114	-1.4857671270729
77	167673	115	-1.4321015284583
77	169508	116	-0.00077322563854842
77	171331	117	0.001155261106323
77	173166	118	0.00086030801990944
77	175001	119	0.11446885156678
77	176836	120	-0.10507879241137
77	178671	121	0.08909402221674
77	180506	122	-0.10368182934821
77	182341	123	0.11637249329127
77	184188	124	-0.11535010061227
77	186035	125	1.6145327268238
77	187866	126	1.3250890150177
77	189697	127	-0.029732918397057
77	191528	128	-0.0089538232330231
77	193371	129	0.063009029997046
77	195230	130	-0.028679768361616
77	197101	131	0.013230457534082
77	198960	132	-0.0035145212500343
77	200819	133	-1.8619532305254
77	202678	134	-3.3046018863179
77	204521	135	-2.8221933059594
77	206348	136	-2.3223599452108
77	208191	137	2.0390297051564
77	210022	138	1.8412307921541
77	211853	139	2.0175308902957
77	213684	140	2.0887607439468
77	215531	141	1.9932708483702
77	217362	142	0.37716498288113
77	219209	143	-0.097323678340762
77	221028	144	-0.0071050645364448
77	222863	145	0.11655486318981
77	224698	146	-0.12238836325472
77	226533	147	0.049088818386663
77	228368	148	-0.1130876611988
78	15463	33	4.257584153018
78	17289	34	5.3602888178864
78	19470	35	5.9677852814402
78	21229	36	4.3787854585043
78	23621	37	7.4153400023972
78	25392	38	6.0623763242426
78	27205	39	1.9542330117763
78	28976	40	2.1301646042733
78	30747	41	1.9678017997794
78	32518	42	2.1615435630632
78	34301	43	1.7959426195218
78	36096	44	2.0375009716475
78	37891	45	2.0704328106675
78	39686	46	2.31636701278
78	41481	47	1.9883024489818
78	43276	48	1.8105104940674
78	45071	49	2.3166288292171
78	46878	50	1.9367179605207
78	48685	51	2.0570780144046
78	50492	52	1.789164702776
78	52299	53	2.0423474258875
78	54106	54	2.2996516863978
78	55913	55	1.8496515907258
78	57732	56	2.1907674182785
78	59551	57	1.9130133966404
78	61370	58	1.8841759822608
78	63189	59	2.2597746640799
78	65016	60	1.8021547778302
78	66843	61	2.2937794852135
78	68682	62	1.767665590026
78	70521	63	2.0950421557047
78	72360	64	1.9454659857284
78	74199	65	2.1426371868184
78	76038	66	2.2000457579314
78	77877	67	1.9819791902773
78	79728	68	1.7819893743423
78	81579	69	2.4075705254165
78	83430	70	1.9480167063698
78	85281	71	1.9926188804768
78	87132	72	2.1263979972592
78	88967	73	2.0039344826361
78	90830	74	1.7102843970064
78	92693	75	2.298091227254
78	94556	76	2.1373123900164
78	96419	77	1.7646150334123
78	98282	78	2.2916876689675
78	100145	79	1.8493377870991
78	102036	80	2.2377647450568
78	103927	81	2.0786749342082
78	105818	82	1.6894958260207
78	107693	83	2.3211998549187
78	109568	84	1.834088616145
78	111443	85	2.110875775921
78	113318	86	1.997623239247
78	115209	87	1.9965118627545
78	117100	88	2.077864668473
78	118991	89	1.8409057442267
78	120882	90	2.1323213954925
78	122773	91	0.973
78	124664	92	2.8708591459429
78	126555	93	6.1182908239935
78	128446	94	1.8739288072412
78	130337	95	2.14795248977
78	132228	96	1.848798361208
78	134119	97	2.2032058152902
78	135998	98	2.1615408159922
78	137877	99	1.871024464882
78	139756	100	1.8343155918355
78	141635	101	2.1998325713452
78	143514	102	1.9490077442777
78	145393	103	2.067641892293
78	147260	104	1.9244181820196
78	149127	105	2.3342065083738
78	150994	106	1.8178986214507
78	152861	107	2.1001230704066
78	154728	108	2.2022000246398
78	156595	109	1.9946646152469
78	158450	110	1.7364580716465
78	160285	111	2.1122109655871
78	162132	112	2.2945938794154
78	163979	113	1.7938286963022
78	165826	114	0.973
78	167673	115	0.973
78	169508	116	1.760954304297
78	171331	117	1.7661580928272
78	173166	118	1.7654471051845
78	175001	119	2.0790345418833
78	176836	120	1.4852664807936
78	178671	121	2.0094376634199
78	180506	122	1.4881431191556
78	182341	123	2.0837672781839
78	184188	124	1.4572950169581
78	186035	125	6.8077677211672
78	187866	126	6.4802686860889
78	189697	127	1.9290725513861
78	191528	128	1.9977910186307
78	193371	129	2.2460936314468
78	195230	130	1.9350106543995
78	197101	131	2.077058926698
78	198960	132	2.0204514713222
78	200819	133	0.973
78	202678	134	0.973
78	204521	135	0.973
78	206348	136	0.973
78	208191	137	4.1830573696725
78	210022	138	4.8411889573514
78	211853	139	6.279066286824
78	213684	140	7.6595983490597
78	215531	141	8.5340625889074
78	217362	142	3.3078130978093
78	219209	143	1.7013626783809
78	221028	144	2.0025306949787
78	222863	145	2.4312633374514
78	224698	146	1.6165613351123
78	226533	147	2.1953772964683
78	228368	148	1.6429131444092
