version 2
run WithoutChannelSwitching-0-20180511-18:46:36-3470
attr configname WithoutChannelSwitching
attr datetime 20180511-18:46:36
attr experiment WithoutChannelSwitching
attr inifile omnetpp.ini
attr iterationvars $margin=25
attr iterationvars2 "$margin=25, $repetition=0"
attr margin 25
attr measurement $margin=25
attr network RSUExampleScenario3
attr processid 3470
attr repetition 0
attr replication #0
attr resultdir results
attr runnumber 0
attr seedset 0
param **.coreDebug false
param **.debug false
param *.**.nic.mac1609_4.bitrate 6Mbps
param *.**.nic.mac1609_4.txPower 20mW
param *.**.nic.mac1609_4.useServiceChannel false
param *.**.nic.phy80211p.analogueModels "xmldoc(\"config.xml\")"
param *.**.nic.phy80211p.antenna "xmldoc(\"antenna.xml\", \"/root/Antenna[@id='monopole']\")"
param *.**.nic.phy80211p.decider "xmldoc(\"config.xml\")"
param *.**.nic.phy80211p.sensitivity -89dBm
param *.**.nic.phy80211p.thermalNoise -110dBm
param *.**.nic.phy80211p.usePropagationDelay true
param *.**.nic.phy80211p.useThermalNoise true
param *.ambulanceNode[*].appl.beaconInterval 1s
param *.ambulanceNode[*].appl.dataOnSch false
param *.ambulanceNode[*].appl.headerLength "80 bit"
param *.ambulanceNode[*].appl.sendBeacons true
param *.ambulanceNode[*].applType "\"TraCIAmbulance11p\""
param *.ambulanceNode[*].veinsmobility.x 0
param *.ambulanceNode[*].veinsmobility.y 0
param *.ambulanceNode[*].veinsmobility.z 1.895
param *.ambulanceNode[*].veinsmobilityType.debug true
param *.annotations.draw true
param *.connectionManager.drawMaxIntfDist false
param *.connectionManager.maxInterfDist 2600m
param *.connectionManager.sendDirect true
param *.manager.autoShutdown true
param *.manager.host "\"localhost\""
param *.manager.launchConfig "xmldoc(\"Coruna.launchd.xml\")"
param *.manager.margin ${margin=25}
param *.manager.moduleName "\"vtype1=ambulanceNode *=node\""
param *.manager.moduleType "\"vtype1=veins_scenarios.src.veins.nodes.Ambulance *=veins_scenarios.src.veins.nodes.Car\""
param *.manager.port 9999
param *.manager.updateInterval 1s
param *.node[*].appl.beaconInterval 1s
param *.node[*].appl.dataOnSch false
param *.node[*].appl.headerLength "80 bit"
param *.node[*].appl.sendBeacons true
param *.node[*].applType "\"TraCI11p3\""
param *.node[*].veinsmobility.x 0
param *.node[*].veinsmobility.y 0
param *.node[*].veinsmobility.z 1.895
param *.node[*].veinsmobilityType.debug true
param *.node[0].veinsmobility.accidentCount 1
param *.node[0].veinsmobility.accidentDuration 50s
param *.node[0].veinsmobility.accidentStart 80s
param *.playgroundSizeX 9999m
param *.playgroundSizeY 9999m
param *.playgroundSizeZ 50m
param *.rsu[*].appl.beaconInterval 1s
param *.rsu[*].appl.beaconPriority 3
param *.rsu[*].appl.dataOnSch false
param *.rsu[*].appl.dataPriority 2
param *.rsu[*].appl.headerLength "80 bit"
param *.rsu[*].appl.sendBeacons true
param *.rsu[*].applType "\"TraCIRSU11p3\""
param *.rsu[0].mobility.x "6074.3 + ${margin}"
param *.rsu[0].mobility.y "6001.1 + ${margin}"
param *.rsu[0].mobility.z 3

vector 4  RSUExampleScenario3.node[0].veinsmobility  posx  ETV
vector 5  RSUExampleScenario3.node[0].veinsmobility  posy  ETV
vector 6  RSUExampleScenario3.node[0].veinsmobility  speed  ETV
vector 7  RSUExampleScenario3.node[0].veinsmobility  acceleration  ETV
vector 8  RSUExampleScenario3.node[0].veinsmobility  co2emission  ETV
vector 11  RSUExampleScenario3.node[1].veinsmobility  posx  ETV
vector 12  RSUExampleScenario3.node[1].veinsmobility  posy  ETV
vector 13  RSUExampleScenario3.node[1].veinsmobility  speed  ETV
vector 14  RSUExampleScenario3.node[1].veinsmobility  acceleration  ETV
vector 15  RSUExampleScenario3.node[1].veinsmobility  co2emission  ETV
vector 18  RSUExampleScenario3.node[2].veinsmobility  posx  ETV
vector 19  RSUExampleScenario3.node[2].veinsmobility  posy  ETV
vector 20  RSUExampleScenario3.node[2].veinsmobility  speed  ETV
vector 21  RSUExampleScenario3.node[2].veinsmobility  acceleration  ETV
vector 22  RSUExampleScenario3.node[2].veinsmobility  co2emission  ETV
vector 25  RSUExampleScenario3.node[3].veinsmobility  posx  ETV
vector 26  RSUExampleScenario3.node[3].veinsmobility  posy  ETV
vector 27  RSUExampleScenario3.node[3].veinsmobility  speed  ETV
vector 28  RSUExampleScenario3.node[3].veinsmobility  acceleration  ETV
vector 29  RSUExampleScenario3.node[3].veinsmobility  co2emission  ETV
vector 32  RSUExampleScenario3.node[4].veinsmobility  posx  ETV
vector 33  RSUExampleScenario3.node[4].veinsmobility  posy  ETV
vector 34  RSUExampleScenario3.node[4].veinsmobility  speed  ETV
vector 35  RSUExampleScenario3.node[4].veinsmobility  acceleration  ETV
vector 36  RSUExampleScenario3.node[4].veinsmobility  co2emission  ETV
vector 39  RSUExampleScenario3.node[5].veinsmobility  posx  ETV
vector 40  RSUExampleScenario3.node[5].veinsmobility  posy  ETV
vector 41  RSUExampleScenario3.node[5].veinsmobility  speed  ETV
vector 42  RSUExampleScenario3.node[5].veinsmobility  acceleration  ETV
vector 43  RSUExampleScenario3.node[5].veinsmobility  co2emission  ETV
vector 46  RSUExampleScenario3.node[6].veinsmobility  posx  ETV
vector 47  RSUExampleScenario3.node[6].veinsmobility  posy  ETV
vector 48  RSUExampleScenario3.node[6].veinsmobility  speed  ETV
vector 49  RSUExampleScenario3.node[6].veinsmobility  acceleration  ETV
vector 50  RSUExampleScenario3.node[6].veinsmobility  co2emission  ETV
vector 53  RSUExampleScenario3.node[7].veinsmobility  posx  ETV
vector 54  RSUExampleScenario3.node[7].veinsmobility  posy  ETV
vector 55  RSUExampleScenario3.node[7].veinsmobility  speed  ETV
vector 56  RSUExampleScenario3.node[7].veinsmobility  acceleration  ETV
vector 57  RSUExampleScenario3.node[7].veinsmobility  co2emission  ETV
vector 60  RSUExampleScenario3.node[8].veinsmobility  posx  ETV
vector 61  RSUExampleScenario3.node[8].veinsmobility  posy  ETV
vector 62  RSUExampleScenario3.node[8].veinsmobility  speed  ETV
vector 63  RSUExampleScenario3.node[8].veinsmobility  acceleration  ETV
vector 64  RSUExampleScenario3.node[8].veinsmobility  co2emission  ETV
vector 67  RSUExampleScenario3.node[9].veinsmobility  posx  ETV
vector 68  RSUExampleScenario3.node[9].veinsmobility  posy  ETV
vector 69  RSUExampleScenario3.node[9].veinsmobility  speed  ETV
vector 70  RSUExampleScenario3.node[9].veinsmobility  acceleration  ETV
vector 71  RSUExampleScenario3.node[9].veinsmobility  co2emission  ETV
vector 74  RSUExampleScenario3.ambulanceNode[10].veinsmobility  posx  ETV
vector 75  RSUExampleScenario3.ambulanceNode[10].veinsmobility  posy  ETV
vector 76  RSUExampleScenario3.ambulanceNode[10].veinsmobility  speed  ETV
vector 77  RSUExampleScenario3.ambulanceNode[10].veinsmobility  acceleration  ETV
vector 78  RSUExampleScenario3.ambulanceNode[10].veinsmobility  co2emission  ETV
4	11	1	6544.7645515431
4	34	2	6544.7645515431
4	57	3	6542.9476746328
4	80	4	6540.0116517324
4	128	5	6535.934434791
4	176	6	6530.7540564709
4	224	7	6524.4311119153
4	309	8	6516.9571960627
4	394	9	6507.9908269355
4	479	10	6498.6599067468
4	613	11	6488.7740554279
4	747	12	6478.5485587721
4	881	13	6467.9060043297
4	1076	14	6457.0589492501
4	1271	15	6446.2009481844
4	1466	16	6434.8146793013
4	1734	17	6423.4232962404
4	2002	18	6411.9586877573
4	2270	19	6400.3693717154
4	2623	20	6388.7758925496
4	2976	21	6376.7153595439
4	3329	22	6364.6207750597
4	3779	23	6352.5427711299
4	4229	24	6340.4682005185
4	4679	25	6328.643117406
4	5238	26	6316.8291454981
4	5797	27	6305.0128038601
4	6356	28	6293.5813783405
4	7036	29	6283.0902151576
4	7724	30	6272.1142152844
4	8412	31	6263.4756260635
4	9291	32	6254.8459499898
4	10112	33	6246.2103520992
4	11564	34	6237.5940637
4	12377	35	6231.1513480713
4	13898	36	6226.9099642836
4	14711	37	6222.9705536281
4	15562	38	6219.0311429726
4	16383	39	6215.476210063
4	17204	40	6212.0593928649
4	18025	41	6208.6425756668
4	18854	42	6205.2257584687
4	19683	43	6201.8089412706
4	20512	44	6198.3921240725
4	21349	45	6194.9753068744
4	22186	46	6191.5584896763
4	23023	47	6188.1416724782
4	23860	48	6184.7248552801
4	24697	49	6181.308038082
4	25534	50	6177.8912208839
4	26379	51	6174.4744036858
4	27224	52	6171.0575864877
4	28069	53	6167.6407692896
4	28914	54	6164.2239520915
4	29759	55	6160.8071348934
4	30604	56	6157.3903176953
4	31457	57	6153.9735004972
4	32310	58	6150.5566832991
4	33163	59	6147.139866101
4	34024	60	6143.7230489029
4	34885	61	6140.3062317048
4	35746	62	6136.8894145067
4	36615	63	6133.4927320795
4	37484	64	6130.1805643337
4	38353	65	6126.8683965879
4	39222	66	6123.5562288421
4	40091	67	6120.2440610963
4	40960	68	6116.9318933505
4	41837	69	6113.6197256047
4	42714	70	6110.3075578589
4	43591	71	6106.9953901131
4	44468	72	6103.6832223673
4	45345	73	6100.3710546214
4	46214	74	6097.0645378742
4	47099	75	6093.78307982
4	47984	76	6090.5016217657
4	48869	77	6087.2201637115
4	49754	78	6083.9387056572
4	50639	79	6080.6572476029
4	51540	80	6077.3757895487
4	52442	81	6074.0943314944
4	53343	82	6071.9731032522
4	54244	83	6071.703554912
4	55145	84	6071.703554912
4	56046	85	6071.703554912
4	56947	86	6071.703554912
4	57848	87	6071.703554912
4	58749	88	6071.703554912
4	59650	89	6071.703554912
4	60551	90	6071.703554912
4	61452	91	6071.703554912
4	62353	92	6071.703554912
4	63254	93	6071.703554912
4	64155	94	6071.703554912
4	65056	95	6071.703554912
4	65957	96	6071.703554912
4	66850	97	6071.703554912
4	67743	98	6071.703554912
4	68636	99	6071.703554912
4	69529	100	6071.703554912
4	70422	101	6071.703554912
4	71315	102	6071.703554912
4	72200	103	6071.703554912
4	73085	104	6071.703554912
4	73970	105	6071.703554912
4	74855	106	6071.703554912
4	75740	107	6071.703554912
4	76625	108	6071.703554912
4	77502	109	6071.703554912
4	78379	110	6071.703554912
4	79240	111	6071.703554912
4	80101	112	6071.703554912
4	80970	113	6071.703554912
4	81839	114	6071.703554912
4	82700	115	6071.703554912
4	83553	116	6071.703554912
4	84398	117	6071.703554912
4	85251	118	6071.703554912
4	86096	119	6071.703554912
4	86949	120	6071.703554912
4	87802	121	6071.703554912
4	88655	122	6071.703554912
4	89508	123	6071.703554912
4	90377	124	6071.703554912
4	91254	125	6071.703554912
4	92131	126	6071.703554912
4	93008	127	6071.703554912
4	93885	128	6071.703554912
4	94770	129	6071.703554912
4	95655	130	6071.703554912
4	96549	131	6071.703554912
4	97442	132	6071.0827239923
4	98335	133	6069.4342835058
4	99220	134	6066.9150690396
4	100105	135	6063.5018461012
4	100990	136	6058.869543204
4	101875	137	6050.7497599231
4	102760	138	6044.4161552436
4	103637	139	6037.9627859736
4	104514	140	6031.5154338358
4	105391	141	6025.0676336038
4	106268	142	6018.6160338609
4	107145	143	6015.0898775867
4	108022	144	6008.6456327778
4	108891	145	6002.1995298336
4	109760	146	5995.7451157399
4	110629	147	5989.3082444573
4	111498	148	5982.8668842161
4	112367	149	5976.5743187516
4	113236	150	5971.8976695054
4	114097	151	5969.2752801122
4	114958	152	5967.3221009362
4	115819	153	5965.2819391753
4	116680	154	5962.8100932652
4	117533	155	5960.0616264053
4	118386	156	5957.1361406977
4	119223	157	5954.0960030764
4	120060	158	5950.9488230459
4	120889	159	5947.7250933131
4	121718	160	5944.4911427608
5	11	1	6531.1346674873
5	34	2	6531.1346674873
5	57	3	6528.6604084302
5	80	4	6524.662074139
5	128	5	6519.1096391405
5	176	6	6512.0548970692
5	224	7	6503.4441856086
5	309	8	6493.266058579
5	394	9	6482.6262582733
5	479	10	6472.2096492476
5	613	11	6462.3364183829
5	747	12	6452.8317343883
5	881	13	6443.7929354508
5	1076	14	6434.9903514857
5	1271	15	6426.1788846522
5	1466	16	6418.0917677557
5	1734	17	6410.0021287568
5	2002	18	6401.996390843
5	2270	19	6394.2861074943
5	2623	20	6386.5730544511
5	2976	21	6379.6411985288
5	3329	22	6372.7507191665
5	3779	23	6365.8696860128
5	4229	24	6358.984273339
5	4679	25	6351.6322382599
5	5238	26	6344.2871113747
5	5797	27	6336.9405111519
5	6356	28	6329.0768264433
5	7036	29	6319.925280941
5	7724	30	6313.3831535761
5	8412	31	6302.4486828353
5	9291	32	6291.5254940926
5	10112	33	6280.5948096892
5	11564	34	6269.6692609609
5	12377	35	6260.2177644294
5	13898	36	6253.9956328831
5	14711	37	6248.2164974544
5	15562	38	6242.4373620258
5	16383	39	6236.4201901172
5	17204	40	6230.3175085058
5	18025	41	6224.2148268944
5	18854	42	6218.112145283
5	19683	43	6212.0094636717
5	20512	44	6205.9067820603
5	21349	45	6199.8041004489
5	22186	46	6193.7014188375
5	23023	47	6187.5987372261
5	23860	48	6181.4960556147
5	24697	49	6175.3933740033
5	25534	50	6169.2906923919
5	26379	51	6163.1880107805
5	27224	52	6157.0853291691
5	28069	53	6150.9826475578
5	28914	54	6144.8799659464
5	29759	55	6138.777284335
5	30604	56	6132.6746027236
5	31457	57	6126.5719211122
5	32310	58	6120.4692395008
5	33163	59	6114.3665578894
5	34024	60	6108.263876278
5	34885	61	6102.1611946666
5	35746	62	6096.0585130552
5	36615	63	6089.9447828492
5	37484	64	6083.7846767269
5	38353	65	6077.6245706045
5	39222	66	6071.4644644821
5	40091	67	6065.3043583598
5	40960	68	6059.1442522374
5	41837	69	6052.984146115
5	42714	70	6046.8240399927
5	43591	71	6040.6639338703
5	44468	72	6034.5038277479
5	45345	73	6028.3437216255
5	46214	74	6022.1930159847
5	47099	75	6015.9947063266
5	47984	76	6009.7963966686
5	48869	77	6003.5980870105
5	49754	78	5997.3997773525
5	50639	79	5991.2014676944
5	51540	80	5985.0031580364
5	52442	81	5978.8048483783
5	53343	82	5974.7980839208
5	54244	83	5974.288937056
5	55145	84	5974.288937056
5	56046	85	5974.288937056
5	56947	86	5974.288937056
5	57848	87	5974.288937056
5	58749	88	5974.288937056
5	59650	89	5974.288937056
5	60551	90	5974.288937056
5	61452	91	5974.288937056
5	62353	92	5974.288937056
5	63254	93	5974.288937056
5	64155	94	5974.288937056
5	65056	95	5974.288937056
5	65957	96	5974.288937056
5	66850	97	5974.288937056
5	67743	98	5974.288937056
5	68636	99	5974.288937056
5	69529	100	5974.288937056
5	70422	101	5974.288937056
5	71315	102	5974.288937056
5	72200	103	5974.288937056
5	73085	104	5974.288937056
5	73970	105	5974.288937056
5	74855	106	5974.288937056
5	75740	107	5974.288937056
5	76625	108	5974.288937056
5	77502	109	5974.288937056
5	78379	110	5974.288937056
5	79240	111	5974.288937056
5	80101	112	5974.288937056
5	80970	113	5974.288937056
5	81839	114	5974.288937056
5	82700	115	5974.288937056
5	83553	116	5974.288937056
5	84398	117	5974.288937056
5	85251	118	5974.288937056
5	86096	119	5974.288937056
5	86949	120	5974.288937056
5	87802	121	5974.288937056
5	88655	122	5974.288937056
5	89508	123	5974.288937056
5	90377	124	5974.288937056
5	91254	125	5974.288937056
5	92131	126	5974.288937056
5	93008	127	5974.288937056
5	93885	128	5974.288937056
5	94770	129	5974.288937056
5	95655	130	5974.288937056
5	96549	131	5974.288937056
5	97442	132	5973.1162564299
5	98335	133	5970.0025355109
5	99220	134	5965.244019297
5	100105	135	5958.7968204134
5	100990	136	5950.599314806
5	101875	137	5943.9510851734
5	102760	138	5932.2994330367
5	103637	139	5919.9315469726
5	104514	140	5907.5751927459
5	105391	141	5895.2179797465
5	106268	142	5882.8534849822
5	107145	143	5868.9502576229
5	108022	144	5856.5998585938
5	108891	145	5844.2458984475
5	109760	146	5831.8760099782
5	110629	147	5819.5397423168
5	111498	148	5807.1948715636
5	112367	149	5795.1351660889
5	113236	150	5786.1723650127
5	114097	151	5781.1465541727
5	114958	152	5777.4032851143
5	115819	153	5773.4933138798
5	116680	154	5768.7560197154
5	117533	155	5763.4885813352
5	118386	156	5757.8818862276
5	119223	157	5752.0554606587
5	120060	158	5746.1010808504
5	120889	159	5740.072110183
5	121718	160	5734.0240246933
6	34	2	3.9572089270348
6	57	3	5.7922925953529
6	80	4	7.6194012491274
6	128	5	9.5894080545995
6	176	6	11.533503466331
6	224	7	13.45866683106
6	309	8	13.873021058196
6	394	9	13.987787734221
6	479	10	13.92303454956
6	613	11	13.997504883918
6	747	12	13.986970504746
6	881	13	13.932265241607
6	1076	14	13.936240355759
6	1271	15	13.918232359637
6	1466	16	13.936552683001
6	1734	17	13.886342563913
6	2002	18	13.998514430835
6	2270	19	13.994200401348
6	2623	20	13.940441952762
6	2976	21	13.967247671166
6	3329	22	13.967575394399
6	3779	23	13.88342104964
6	4229	24	13.919109962026
6	4679	25	13.979139206402
6	5238	26	13.906217133983
6	5797	27	13.912720147136
6	6356	28	13.974052501973
6	7036	29	13.877146519173
6	7724	30	13.972383533192
6	8412	31	13.936054009828
6	9291	32	13.927896142672
6	10112	33	13.923161500536
6	11564	34	9.4231615005364
6	12377	35	7
6	13898	36	7
6	14711	37	7
6	15562	38	7
6	16383	39	7
6	17204	40	7
6	18025	41	7
6	18854	42	7
6	19683	43	7
6	20512	44	7
6	21349	45	7
6	22186	46	7
6	23023	47	7
6	23860	48	7
6	24697	49	7
6	25534	50	7
6	26379	51	7
6	27224	52	7
6	28069	53	7
6	28914	54	7
6	29759	55	7
6	30604	56	7
6	31457	57	7
6	32310	58	7
6	33163	59	7
6	34024	60	7
6	34885	61	7
6	35746	62	7
6	36615	63	7
6	37484	64	7
6	38353	65	7
6	39222	66	7
6	40091	67	7
6	40960	68	7
6	41837	69	7
6	42714	70	7
6	43591	71	7
6	44468	72	7
6	45345	73	7
6	46214	74	7
6	47099	75	7
6	47984	76	7
6	48869	77	7
6	49754	78	7
6	50639	79	7
6	51540	80	7
6	52442	81	2.5
6	53343	82	0
6	54244	83	0
6	55145	84	0
6	56046	85	0
6	56947	86	0
6	57848	87	0
6	58749	88	0
6	59650	89	0
6	60551	90	0
6	61452	91	0
6	62353	92	0
6	63254	93	0
6	64155	94	0
6	65056	95	0
6	65957	96	0
6	66850	97	0
6	67743	98	0
6	68636	99	0
6	69529	100	0
6	70422	101	0
6	71315	102	0
6	72200	103	0
6	73085	104	0
6	73970	105	0
6	74855	106	0
6	75740	107	0
6	76625	108	0
6	77502	109	0
6	78379	110	0
6	79240	111	0
6	80101	112	0
6	80970	113	0
6	81839	114	0
6	82700	115	0
6	83553	116	0
6	84398	117	0
6	85251	118	0
6	86096	119	0
6	86949	120	0
6	87802	121	0
6	88655	122	0
6	89508	123	0
6	90377	124	0
6	91254	125	0
6	92131	126	0
6	93008	127	0
6	93885	128	0
6	94770	129	0
6	95655	130	0
6	96549	131	2.3466330689648
6	97442	132	4.3469912031842
6	98335	133	6.1733491631401
6	99220	134	8.2725260613011
6	100105	135	10.24137301922
6	100990	136	12.279452371028
6	101875	137	13.876003689128
6	102760	138	13.960598603005
6	103637	139	13.970084605706
6	104514	140	13.944554753217
6	105391	141	13.932450513388
6	106268	142	13.961987974313
6	107145	143	13.959914342386
6	108022	144	13.970287846257
6	108891	145	13.963988041056
6	109760	146	13.943812070759
6	110629	147	13.901691292082
6	111498	148	12.584595993906
6	112367	149	8.0845959939063
6	113236	150	4.1772947708494
6	114097	151	4.2222222222222
6	114958	152	4.7818108867122
6	115819	153	5.6085446435542
6	116680	154	6.1394659971081
6	117533	155	6.4106559074245
6	118386	156	6.6933498741064
6	119223	157	6.7413295225867
6	120060	158	6.8893295165864
6	120889	159	6.8766974105175
6	121718	160	6.8622496282373
7	57	3	1.8350836683181
7	80	4	1.8271086537745
7	128	5	1.9700068054721
7	176	6	1.9440954117314
7	224	7	1.9251633647294
7	309	8	0.4143542271355
7	394	9	0.11476667602547
7	479	10	-0.064753184660804
7	613	11	0.074470334358047
7	747	12	-0.010534379172604
7	881	13	-0.054705263138748
7	1076	14	0.0039751141518352
7	1271	15	-0.018007996121888
7	1466	16	0.018320323363879
7	1734	17	-0.050210119087716
7	2002	18	0.11217186692171
7	2270	19	-0.0043140294868493
7	2623	20	-0.053758448585867
7	2976	21	0.026805718403775
7	3329	22	0.00032772323349484
7	3779	23	-0.084154344759881
7	4229	24	0.03568891238654
7	4679	25	0.060029244376347
7	5238	26	-0.072922072419898
7	5797	27	0.0065030131535604
7	6356	28	0.061332354836631
7	7036	29	-0.096905982799361
7	7724	30	0.095237014018931
7	8412	31	-0.036329523364548
7	9291	32	-0.008157867155969
7	10112	33	-0.0047346421354444
7	11564	34	-4.5
7	12377	35	-2.4231615005364
7	13898	36	0
7	14711	37	0
7	15562	38	0
7	16383	39	0
7	17204	40	0
7	18025	41	0
7	18854	42	0
7	19683	43	0
7	20512	44	0
7	21349	45	0
7	22186	46	0
7	23023	47	0
7	23860	48	0
7	24697	49	0
7	25534	50	0
7	26379	51	0
7	27224	52	0
7	28069	53	0
7	28914	54	0
7	29759	55	0
7	30604	56	0
7	31457	57	0
7	32310	58	0
7	33163	59	0
7	34024	60	0
7	34885	61	0
7	35746	62	0
7	36615	63	0
7	37484	64	0
7	38353	65	0
7	39222	66	0
7	40091	67	0
7	40960	68	0
7	41837	69	0
7	42714	70	0
7	43591	71	0
7	44468	72	0
7	45345	73	0
7	46214	74	0
7	47099	75	0
7	47984	76	0
7	48869	77	0
7	49754	78	0
7	50639	79	0
7	51540	80	0
7	52442	81	-4.5
7	53343	82	-2.5
7	54244	83	0
7	55145	84	0
7	56046	85	0
7	56947	86	0
7	57848	87	0
7	58749	88	0
7	59650	89	0
7	60551	90	0
7	61452	91	0
7	62353	92	0
7	63254	93	0
7	64155	94	0
7	65056	95	0
7	65957	96	0
7	66850	97	0
7	67743	98	0
7	68636	99	0
7	69529	100	0
7	70422	101	0
7	71315	102	0
7	72200	103	0
7	73085	104	0
7	73970	105	0
7	74855	106	0
7	75740	107	0
7	76625	108	0
7	77502	109	0
7	78379	110	0
7	79240	111	0
7	80101	112	0
7	80970	113	0
7	81839	114	0
7	82700	115	0
7	83553	116	0
7	84398	117	0
7	85251	118	0
7	86096	119	0
7	86949	120	0
7	87802	121	0
7	88655	122	0
7	89508	123	0
7	90377	124	0
7	91254	125	0
7	92131	126	0
7	93008	127	0
7	93885	128	0
7	94770	129	0
7	95655	130	0
7	96549	131	2.3466330689648
7	97442	132	2.0003581342194
7	98335	133	1.8263579599559
7	99220	134	2.0991768981609
7	100105	135	1.9688469579187
7	100990	136	2.0380793518084
7	101875	137	1.5965513180998
7	102760	138	0.08459491387708
7	103637	139	0.0094860027008696
7	104514	140	-0.025529852488544
7	105391	141	-0.01210423982935
7	106268	142	0.029537460925058
7	107145	143	-0.0020736319269048
7	108022	144	0.010373503870795
7	108891	145	-0.0062998052011238
7	109760	146	-0.02017597029684
7	110629	147	-0.042120778677054
7	111498	148	-1.3170952981757
7	112367	149	-4.5
7	113236	150	-3.9073012230569
7	114097	151	0.044927451372813
7	114958	152	0.55958866448998
7	115819	153	0.82673375684202
7	116680	154	0.53092135355393
7	117533	155	0.27118991031636
7	118386	156	0.28269396668186
7	119223	157	0.04797964848034
7	120060	158	0.14799999399968
7	120889	159	-0.012632106068938
7	121718	160	-0.014447782280173
8	57	3	3.9690439751639
8	80	4	4.8734986088453
8	128	5	6.2068327255978
8	176	6	7.2118621755177
8	224	7	8.2287933875323
8	309	8	3.4112383357952
8	394	9	2.4244807387756
8	479	10	1.8137009457961
8	613	11	2.2898099022095
8	747	12	2.0020020998074
8	881	13	1.8482360798459
8	1076	14	2.0456752375859
8	1271	15	1.9700834342329
8	1466	16	2.0938888010057
8	1734	17	1.859207449473
8	2002	18	2.4171230160978
8	2270	19	2.0237034716781
8	2623	20	1.8521438049225
8	2976	21	2.1257236745966
8	3329	22	2.0366294719502
8	3779	23	1.74537163726
8	4229	24	2.1502956540601
8	4679	25	2.2389467531681
8	5238	26	1.7848725270982
8	5797	27	2.051730205351
8	6356	28	2.2427409462865
8	7036	29	1.7022147078037
8	7724	30	2.3567141215104
8	8412	31	1.9102893269045
8	9291	32	2.0040900155971
8	10112	33	2.0151030434548
8	11564	34	0.973
8	12377	35	0.973
8	13898	36	1.47936595584
8	14711	37	1.47936595584
8	15562	38	1.47936595584
8	16383	39	1.47936595584
8	17204	40	1.47936595584
8	18025	41	1.47936595584
8	18854	42	1.47936595584
8	19683	43	1.47936595584
8	20512	44	1.47936595584
8	21349	45	1.47936595584
8	22186	46	1.47936595584
8	23023	47	1.47936595584
8	23860	48	1.47936595584
8	24697	49	1.47936595584
8	25534	50	1.47936595584
8	26379	51	1.47936595584
8	27224	52	1.47936595584
8	28069	53	1.47936595584
8	28914	54	1.47936595584
8	29759	55	1.47936595584
8	30604	56	1.47936595584
8	31457	57	1.47936595584
8	32310	58	1.47936595584
8	33163	59	1.47936595584
8	34024	60	1.47936595584
8	34885	61	1.47936595584
8	35746	62	1.47936595584
8	36615	63	1.47936595584
8	37484	64	1.47936595584
8	38353	65	1.47936595584
8	39222	66	1.47936595584
8	40091	67	1.47936595584
8	40960	68	1.47936595584
8	41837	69	1.47936595584
8	42714	70	1.47936595584
8	43591	71	1.47936595584
8	44468	72	1.47936595584
8	45345	73	1.47936595584
8	46214	74	1.47936595584
8	47099	75	1.47936595584
8	47984	76	1.47936595584
8	48869	77	1.47936595584
8	49754	78	1.47936595584
8	50639	79	1.47936595584
8	51540	80	1.47936595584
8	52442	81	0.973
8	53343	82	0.973
8	54244	83	0.973
8	55145	84	0.973
8	56046	85	0.973
8	56947	86	0.973
8	57848	87	0.973
8	58749	88	0.973
8	59650	89	0.973
8	60551	90	0.973
8	61452	91	0.973
8	62353	92	0.973
8	63254	93	0.973
8	64155	94	0.973
8	65056	95	0.973
8	65957	96	0.973
8	66850	97	0.973
8	67743	98	0.973
8	68636	99	0.973
8	69529	100	0.973
8	70422	101	0.973
8	71315	102	0.973
8	72200	103	0.973
8	73085	104	0.973
8	73970	105	0.973
8	74855	106	0.973
8	75740	107	0.973
8	76625	108	0.973
8	77502	109	0.973
8	78379	110	0.973
8	79240	111	0.973
8	80101	112	0.973
8	80970	113	0.973
8	81839	114	0.973
8	82700	115	0.973
8	83553	116	0.973
8	84398	117	0.973
8	85251	118	0.973
8	86096	119	0.973
8	86949	120	0.973
8	87802	121	0.973
8	88655	122	0.973
8	89508	123	0.973
8	90377	124	0.973
8	91254	125	0.973
8	92131	126	0.973
8	93008	127	0.973
8	93885	128	0.973
8	94770	129	0.973
8	95655	130	0.973
8	96549	131	2.5515068243856
8	97442	132	3.4229120095225
8	98335	133	4.1467497785824
8	99220	134	5.7464493422749
8	100105	135	6.5627255701116
8	100990	136	7.904791606303
8	101875	137	7.3652444411899
8	102760	138	2.3194326536502
8	103637	139	2.067720412848
8	104514	140	1.9473765769262
8	105391	141	1.9912948738919
8	106268	142	2.1343435842414
8	107145	143	2.0277663375457
8	108022	144	2.0707297484959
8	108891	145	2.0139584640057
8	109760	146	1.9652967988895
8	110629	147	1.887685070497
8	111498	148	0.973
8	112367	149	0.973
8	113236	150	0.973
8	114097	151	1.3663495575814
8	114958	152	1.9956543876575
8	115819	153	2.5143161151465
8	116680	154	2.2131029494026
8	117533	155	1.8625675256598
8	118386	156	1.9166015770595
8	119223	157	1.541453865761
8	120060	158	1.7182765707882
8	120889	159	1.4508377600947
8	121718	160	1.4469930658048
11	80	4	6544.7547867117
11	128	5	6544.7547867117
11	176	6	6542.9269134862
11	224	7	6539.8565370628
11	309	8	6535.6372826048
11	394	9	6530.2408223198
11	479	10	6523.6956738157
11	613	11	6516.0532478835
11	747	12	6506.9430276212
11	881	13	6497.6064989675
11	1076	14	6487.6428959689
11	1271	15	6477.3987466699
11	1466	16	6466.6842757547
11	1734	17	6455.829809692
11	2002	18	6444.9203594607
11	2270	19	6433.5182245243
11	2623	20	6422.1278881361
11	2976	21	6410.6207585863
11	3329	22	6399.0470568096
11	3779	23	6387.4448411351
11	4229	24	6375.3465811024
11	4679	25	6363.2539937305
11	5238	26	6351.1654690727
11	5797	27	6339.1415296762
11	6356	28	6327.3208940182
11	7036	29	6315.5092342784
11	7724	30	6303.7098851867
11	8412	31	6292.424540943
11	9291	32	6281.7143210853
11	10112	33	6272.7029866847
11	11564	34	6268.0417238924
11	12377	35	6263.7059833402
11	13898	36	6259.370242788
11	14711	37	6255.0345022358
11	15562	38	6250.6987616835
11	16383	39	6246.3630211313
11	17204	40	6242.0272805791
11	18025	41	6237.6915400269
11	18854	42	6233.7519885976
11	19683	43	6229.8125779421
11	20512	44	6225.8731672866
11	21349	45	6221.933756631
11	22186	46	6217.9943459755
11	23023	47	6214.57695225
11	23860	48	6211.1601350519
11	24697	49	6207.7433178538
11	25534	50	6204.3265006557
11	26379	51	6200.9096834576
11	27224	52	6197.4928662595
11	28069	53	6194.0760490614
11	28914	54	6190.6592318633
11	29759	55	6187.2424146652
11	30604	56	6183.8255974671
11	31457	57	6180.408780269
11	32310	58	6176.9919630709
11	33163	59	6173.5751458728
11	34024	60	6170.1583286747
11	34885	61	6166.7415114766
11	35746	62	6163.3246942785
11	36615	63	6159.9078770804
11	37484	64	6156.4910598823
11	38353	65	6153.0742426842
11	39222	66	6149.6574254861
11	40091	67	6146.240608288
11	40960	68	6142.8237910899
11	41837	69	6139.4069738918
11	42714	70	6135.9901566937
11	43591	71	6132.6210165178
11	44468	72	6129.308848772
11	45345	73	6125.9966810261
11	46214	74	6122.6845132803
11	47099	75	6119.3723455345
11	47984	76	6116.0601777887
11	48869	77	6112.7480100429
11	49754	78	6109.4358422971
11	50639	79	6106.1236745513
11	51540	80	6102.8115068055
11	52442	81	6099.4993390597
11	53343	82	6096.2009046676
11	54244	83	6092.9194466134
11	55145	84	6089.6379885591
11	56046	85	6086.3565305048
11	56947	86	6083.0750724506
11	57848	87	6079.7936143963
11	58749	88	6074.145939858
11	59650	89	6070.9998941862
11	60551	90	6067.7312821756
11	61452	91	6064.462670165
11	62353	92	6061.1940581544
11	63254	93	6057.9254461438
11	64155	94	6054.1419850848
11	65056	95	6048.440441691
11	65957	96	6044.7981884054
11	66850	97	6041.5600229295
11	67743	98	6038.3218574536
11	68636	99	6035.0836919776
11	69529	100	6031.8455265017
11	70422	101	6028.6073610258
11	71315	102	6025.3691955499
11	72200	103	6022.131030074
11	73085	104	6018.8928645981
11	73970	105	6015.6546991221
11	74855	106	6012.4165336462
11	75740	107	6009.1783681703
11	76625	108	6005.9402026944
11	77502	109	6002.7020372185
11	78379	110	5999.4638717426
11	79240	111	5999.1457062666
11	80101	112	5995.9075407907
11	80970	113	5992.6693753148
11	81839	114	5989.4312098389
11	82700	115	5986.193044363
11	83553	116	5982.9548788871
11	84398	117	5979.7167134111
11	85251	118	5976.4785479352
11	86096	119	5973.2403824593
11	86949	120	5970.0022169834
11	87802	121	5966.7640515075
11	88655	122	5966.4558860316
11	89508	123	5963.2177205556
11	90377	124	5959.9795550797
11	91254	125	5956.7413896038
11	92131	126	5953.5032241279
11	93008	127	5950.2026862422
11	93885	128	5946.9022866781
11	94770	129	5943.601887114
11	95655	130	5940.3014875499
11	96549	131	5937.0010879858
11	97442	132	5933.7006884217
11	98335	133	5930.4002888575
11	99220	134	5927.0998892934
11	100105	135	5922.2577820516
11	100990	136	5920.5992660314
11	101875	137	5918.9407500112
11	102760	138	5917.2822339909
11	103637	139	5914.4591273577
11	104514	140	5911.4714030895
11	105391	141	5908.4836788214
11	106268	142	5905.4959545532
11	107145	143	5902.8635745245
11	108022	144	5901.0925346332
11	108891	145	5900.5226270032
11	109760	146	5900.9584446592
11	110629	147	5902.7453062847
11	111498	148	5906.1679166062
11	112367	149	5910.5022286884
11	113236	150	5915.9321002328
11	114097	151	5922.2816317705
11	114958	152	5929.1772560009
11	115819	153	5936.1377375498
11	116680	154	5943.0153606172
11	117533	155	5949.5203545067
11	118386	156	5955.2575238031
11	119223	157	5959.3245989319
11	120060	158	5963.2172679282
11	120889	159	5962.5705819242
11	121718	160	5961.8400113278
12	80	4	6531.1213695459
12	128	5	6531.1213695459
12	176	6	6528.6321354885
12	224	7	6524.4508359017
12	309	8	6518.7049713924
12	394	9	6511.3559646101
12	479	10	6502.4426513998
12	613	11	6492.0350439976
12	747	12	6481.4565434355
12	881	13	6471.0336733782
12	1076	14	6461.2624771066
12	1271	15	6451.7739505617
12	1466	16	6442.8014803245
12	1734	17	6433.9928822108
12	2002	18	6425.2683593857
12	2270	19	6417.1710848968
12	2623	20	6409.0821891969
12	2976	21	6401.1062767956
12	3329	22	6393.4063814981
12	3779	23	6385.7539568107
12	4229	24	6378.8613834293
12	4679	25	6371.972041854
12	5238	26	6365.0850148724
12	5797	27	6358.1594393418
12	6356	28	6350.8101693884
12	7036	29	6343.4664800526
12	7724	30	6336.1304446433
12	8412	31	6328.0677057293
12	9291	32	6319.4327298007
12	10112	33	6314.1284030012
12	11564	34	6308.2283144202
12	12377	35	6302.7402622631
12	13898	36	6297.252210106
12	14711	37	6291.7641579489
12	15562	38	6286.2761057918
12	16383	39	6280.7880536347
12	17204	40	6275.3000014776
12	18025	41	6269.8119493205
12	18854	42	6264.0329172827
12	19683	43	6258.2537818541
12	20512	44	6252.4746464255
12	21349	45	6246.6955109968
12	22186	46	6240.9163755682
12	23023	47	6234.8140508944
12	23860	48	6228.711369283
12	24697	49	6222.6086876716
12	25534	50	6216.5060060602
12	26379	51	6210.4033244488
12	27224	52	6204.3006428374
12	28069	53	6198.1979612261
12	28914	54	6192.0952796147
12	29759	55	6185.9925980033
12	30604	56	6179.8899163919
12	31457	57	6173.7872347805
12	32310	58	6167.6845531691
12	33163	59	6161.5818715577
12	34024	60	6155.4791899463
12	34885	61	6149.3765083349
12	35746	62	6143.2738267235
12	36615	63	6137.1711451121
12	37484	64	6131.0684635008
12	38353	65	6124.9657818894
12	39222	66	6118.863100278
12	40091	67	6112.7604186666
12	40960	68	6106.6577370552
12	41837	69	6100.5550554438
12	42714	70	6094.4523738324
12	43591	71	6088.3235303098
12	44468	72	6082.1634241874
12	45345	73	6076.0033180651
12	46214	74	6069.8432119427
12	47099	75	6063.6831058203
12	47984	76	6057.5229996979
12	48869	77	6051.3628935756
12	49754	78	6045.2027874532
12	50639	79	6039.0426813308
12	51540	80	6032.8825752085
12	52442	81	6026.7224690861
12	53343	82	6020.5617088166
12	54244	83	6014.3633991586
12	55145	84	6008.1650895005
12	56046	85	6001.9667798425
12	56947	86	5995.7684701844
12	57848	87	5989.5701605264
12	58749	88	5985.9572754503
12	59650	89	5980.0146504902
12	60551	90	5973.840507663
12	61452	91	5967.6663648358
12	62353	92	5961.4922220086
12	63254	93	5955.3180791814
12	64155	94	5949.4505271432
12	65056	95	5946.0928156324
12	65957	96	5940.1480338383
12	66850	97	5933.9424104227
12	67743	98	5927.7367870072
12	68636	99	5921.5311635917
12	69529	100	5915.3255401761
12	70422	101	5909.1199167606
12	71315	102	5902.9142933451
12	72200	103	5896.7086699295
12	73085	104	5890.503046514
12	73970	105	5884.2974230985
12	74855	106	5878.0917996829
12	75740	107	5871.8861762674
12	76625	108	5865.6805528519
12	77502	109	5859.4749294363
12	78379	110	5853.2693060208
12	79240	111	5845.5385905074
12	80101	112	5839.3326444369
12	80970	113	5833.1266983664
12	81839	114	5826.9207522959
12	82700	115	5820.7148062253
12	83553	116	5814.5088601548
12	84398	117	5808.3029140843
12	85251	118	5802.0969680138
12	86096	119	5795.8910219432
12	86949	120	5789.6850758727
12	87802	121	5783.4791298022
12	88655	122	5775.7431837317
12	89508	123	5769.5372376612
12	90377	124	5763.3312915906
12	91254	125	5757.1253455201
12	92131	126	5750.9193994496
12	93008	127	5744.705667067
12	93885	128	5738.5333096388
12	94770	129	5732.3609522105
12	95655	130	5726.1885947822
12	96549	131	5720.016237354
12	97442	132	5713.8438799257
12	98335	133	5707.6715224975
12	99220	134	5701.4991650692
12	100105	135	5697.5640744608
12	100990	136	5690.764748997
12	101875	137	5683.9654235333
12	102760	138	5677.1660980695
12	103637	139	5670.7665729342
12	104514	140	5664.4363872244
12	105391	141	5658.1062015146
12	106268	142	5651.7760158048
12	107145	143	5645.3180447638
12	108022	144	5638.5452008042
12	108891	145	5631.5905642726
12	109760	146	5624.6688566978
12	110629	147	5617.9209366515
12	111498	148	5611.8140768869
12	112367	149	5606.3480041385
12	113236	150	5602.1173401016
12	114097	151	5599.3225017936
12	114958	152	5598.1148743377
12	115819	153	5598.44090133
12	116680	154	5599.6136175093
12	117533	155	5601.959091069
12	118386	156	5605.9706850243
12	119223	157	5611.6183478771
12	120060	158	5617.43686364
12	120889	159	5623.2509954249
12	121718	160	5630.1647938159
13	128	5	4.0425376740037
13	176	6	5.9899797741635
13	224	7	7.995898233327
13	309	8	9.9805223184414
13	394	9	11.797888050693
13	479	10	13.711042579702
13	613	11	13.938882815507
13	747	12	13.987056018973
13	881	13	13.93635863753
13	1076	14	13.873869230964
13	1271	15	13.999992804453
13	1466	16	13.983771702084
13	1734	17	13.935241770302
13	2002	18	13.930649462088
13	2270	19	13.907026762653
13	2623	20	13.934554434547
13	2976	21	13.995779511507
13	3329	22	13.97032573021
13	3779	23	13.971981254104
13	4229	24	13.998893493533
13	4679	25	13.924586101961
13	5238	26	13.878107421112
13	5797	27	13.983900225542
13	6356	28	13.907319508991
13	7036	29	13.882986723597
13	7724	30	13.958137745832
13	8412	31	13.901103336681
13	9291	32	9.4011033366807
13	10112	33	7
13	11564	34	7
13	12377	35	7
13	13898	36	7
13	14711	37	7
13	15562	38	7
13	16383	39	7
13	17204	40	7
13	18025	41	7
13	18854	42	7
13	19683	43	7
13	20512	44	7
13	21349	45	7
13	22186	46	7
13	23023	47	7
13	23860	48	7
13	24697	49	7
13	25534	50	7
13	26379	51	7
13	27224	52	7
13	28069	53	7
13	28914	54	7
13	29759	55	7
13	30604	56	7
13	31457	57	7
13	32310	58	7
13	33163	59	7
13	34024	60	7
13	34885	61	7
13	35746	62	7
13	36615	63	7
13	37484	64	7
13	38353	65	7
13	39222	66	7
13	40091	67	7
13	40960	68	7
13	41837	69	7
13	42714	70	7
13	43591	71	7
13	44468	72	7
13	45345	73	7
13	46214	74	7
13	47099	75	7
13	47984	76	7
13	48869	77	7
13	49754	78	7
13	50639	79	7
13	51540	80	7
13	52442	81	7
13	53343	82	7
13	54244	83	7
13	55145	84	7
13	56046	85	7
13	56947	86	7
13	57848	87	5.6950283187455
13	58749	88	7
13	59650	89	7
13	60551	90	7
13	61452	91	7
13	62353	92	7
13	63254	93	7
13	64155	94	7
13	65056	95	7
13	65957	96	7
13	66850	97	7
13	67743	98	7
13	68636	99	7
13	69529	100	7
13	70422	101	7
13	71315	102	7
13	72200	103	7
13	73085	104	7
13	73970	105	7
13	74855	106	7
13	75740	107	7
13	76625	108	7
13	77502	109	7
13	78379	110	7
13	79240	111	7
13	80101	112	7
13	80970	113	7
13	81839	114	7
13	82700	115	7
13	83553	116	7
13	84398	117	7
13	85251	118	7
13	86096	119	7
13	86949	120	7
13	87802	121	7
13	88655	122	7
13	89508	123	7
13	90377	124	7
13	91254	125	7
13	92131	126	7
13	93008	127	7
13	93885	128	7
13	94770	129	7
13	95655	130	7
13	96549	131	7
13	97442	132	7
13	98335	133	7
13	99220	134	7
13	100105	135	7
13	100990	136	7
13	101875	137	7
13	102760	138	7
13	103637	139	7
13	104514	140	7
13	105391	141	7
13	106268	142	7
13	107145	143	7
13	108022	144	7
13	108891	145	7
13	109760	146	7
13	110629	147	7
13	111498	148	7
13	112367	149	7
13	113236	150	7
13	114097	151	7
13	114958	152	7
13	115819	153	7
13	116680	154	7
13	117533	155	7
13	118386	156	7
13	119223	157	7
13	120060	158	7
13	120889	159	7
13	121718	160	7
14	176	6	1.9474421001598
14	224	7	2.0059184591635
14	309	8	1.9846240851143
14	394	9	1.8173657322512
14	479	10	1.9131545290095
14	613	11	0.22784023580519
14	747	12	0.048173203465995
14	881	13	-0.050697381442879
14	1076	14	-0.0624894065666
14	1271	15	0.12612357348902
14	1466	16	-0.016221102369018
14	1734	17	-0.048529931781813
14	2002	18	-0.0045923082134696
14	2270	19	-0.0236226994358
14	2623	20	0.027527671894058
14	2976	21	0.061225076960399
14	3329	22	-0.025453781296964
14	3779	23	0.0016555238934224
14	4229	24	0.026912239429077
14	4679	25	-0.074307391571347
14	5238	26	-0.046478680849541
14	5797	27	0.10579280443024
14	6356	28	-0.076580716550817
14	7036	29	-0.024332785394508
14	7724	30	0.075151022234932
14	8412	31	-0.057034409150948
14	9291	32	-4.5
14	10112	33	-2.4011033366807
14	11564	34	0
14	12377	35	0
14	13898	36	0
14	14711	37	0
14	15562	38	0
14	16383	39	0
14	17204	40	0
14	18025	41	0
14	18854	42	0
14	19683	43	0
14	20512	44	0
14	21349	45	0
14	22186	46	0
14	23023	47	0
14	23860	48	0
14	24697	49	0
14	25534	50	0
14	26379	51	0
14	27224	52	0
14	28069	53	0
14	28914	54	0
14	29759	55	0
14	30604	56	0
14	31457	57	0
14	32310	58	0
14	33163	59	0
14	34024	60	0
14	34885	61	0
14	35746	62	0
14	36615	63	0
14	37484	64	0
14	38353	65	0
14	39222	66	0
14	40091	67	0
14	40960	68	0
14	41837	69	0
14	42714	70	0
14	43591	71	0
14	44468	72	0
14	45345	73	0
14	46214	74	0
14	47099	75	0
14	47984	76	0
14	48869	77	0
14	49754	78	0
14	50639	79	0
14	51540	80	0
14	52442	81	0
14	53343	82	0
14	54244	83	0
14	55145	84	0
14	56046	85	0
14	56947	86	0
14	57848	87	-1.3049716812545
14	58749	88	1.3049716812545
14	59650	89	0
14	60551	90	0
14	61452	91	0
14	62353	92	0
14	63254	93	0
14	64155	94	0
14	65056	95	0
14	65957	96	0
14	66850	97	0
14	67743	98	0
14	68636	99	0
14	69529	100	0
14	70422	101	0
14	71315	102	0
14	72200	103	0
14	73085	104	0
14	73970	105	0
14	74855	106	0
14	75740	107	0
14	76625	108	0
14	77502	109	0
14	78379	110	0
14	79240	111	0
14	80101	112	0
14	80970	113	0
14	81839	114	0
14	82700	115	0
14	83553	116	0
14	84398	117	0
14	85251	118	0
14	86096	119	0
14	86949	120	0
14	87802	121	0
14	88655	122	0
14	89508	123	0
14	90377	124	0
14	91254	125	0
14	92131	126	0
14	93008	127	0
14	93885	128	0
14	94770	129	0
14	95655	130	0
14	96549	131	0
14	97442	132	0
14	98335	133	0
14	99220	134	0
14	100105	135	0
14	100990	136	0
14	101875	137	0
14	102760	138	0
14	103637	139	0
14	104514	140	0
14	105391	141	0
14	106268	142	0
14	107145	143	0
14	108022	144	0
14	108891	145	0
14	109760	146	0
14	110629	147	0
14	111498	148	0
14	112367	149	0
14	113236	150	0
14	114097	151	0
14	114958	152	0
14	115819	153	0
14	116680	154	0
14	117533	155	0
14	118386	156	0
14	119223	157	0
14	120060	158	0
14	120889	159	0
14	121718	160	0
15	176	6	4.2301091069722
15	224	7	5.4083752898229
15	309	8	6.4569285084612
15	394	9	6.9981297601067
15	479	10	8.3312879690391
15	613	11	2.7979710561013
15	747	12	2.1999068898786
15	881	13	1.862060966402
15	1076	14	1.8170336337383
15	1271	15	2.4643876269913
15	1466	16	1.9825177553303
15	1734	17	1.8692397712926
15	2002	18	2.0163360752151
15	2270	19	1.9501722039104
15	2623	20	2.1245964095562
15	2976	21	2.244926002996
15	3329	22	1.9501086784574
15	3779	23	2.0415516808395
15	4229	24	2.1295288887144
15	4679	25	1.7817726947314
15	5238	26	1.8709502657584
15	5797	27	2.3937319200063
15	6356	28	1.7727028712565
15	7036	29	1.9454872553412
15	7724	30	2.287362462657
15	8412	31	1.8376680508692
15	9291	32	0.973
15	10112	33	0.973
15	11564	34	1.47936595584
15	12377	35	1.47936595584
15	13898	36	1.47936595584
15	14711	37	1.47936595584
15	15562	38	1.47936595584
15	16383	39	1.47936595584
15	17204	40	1.47936595584
15	18025	41	1.47936595584
15	18854	42	1.47936595584
15	19683	43	1.47936595584
15	20512	44	1.47936595584
15	21349	45	1.47936595584
15	22186	46	1.47936595584
15	23023	47	1.47936595584
15	23860	48	1.47936595584
15	24697	49	1.47936595584
15	25534	50	1.47936595584
15	26379	51	1.47936595584
15	27224	52	1.47936595584
15	28069	53	1.47936595584
15	28914	54	1.47936595584
15	29759	55	1.47936595584
15	30604	56	1.47936595584
15	31457	57	1.47936595584
15	32310	58	1.47936595584
15	33163	59	1.47936595584
15	34024	60	1.47936595584
15	34885	61	1.47936595584
15	35746	62	1.47936595584
15	36615	63	1.47936595584
15	37484	64	1.47936595584
15	38353	65	1.47936595584
15	39222	66	1.47936595584
15	40091	67	1.47936595584
15	40960	68	1.47936595584
15	41837	69	1.47936595584
15	42714	70	1.47936595584
15	43591	71	1.47936595584
15	44468	72	1.47936595584
15	45345	73	1.47936595584
15	46214	74	1.47936595584
15	47099	75	1.47936595584
15	47984	76	1.47936595584
15	48869	77	1.47936595584
15	49754	78	1.47936595584
15	50639	79	1.47936595584
15	51540	80	1.47936595584
15	52442	81	1.47936595584
15	53343	82	1.47936595584
15	54244	83	1.47936595584
15	55145	84	1.47936595584
15	56046	85	1.47936595584
15	56947	86	1.47936595584
15	57848	87	0.973
15	58749	88	3.6808531821164
15	59650	89	1.47936595584
15	60551	90	1.47936595584
15	61452	91	1.47936595584
15	62353	92	1.47936595584
15	63254	93	1.47936595584
15	64155	94	1.47936595584
15	65056	95	1.47936595584
15	65957	96	1.47936595584
15	66850	97	1.47936595584
15	67743	98	1.47936595584
15	68636	99	1.47936595584
15	69529	100	1.47936595584
15	70422	101	1.47936595584
15	71315	102	1.47936595584
15	72200	103	1.47936595584
15	73085	104	1.47936595584
15	73970	105	1.47936595584
15	74855	106	1.47936595584
15	75740	107	1.47936595584
15	76625	108	1.47936595584
15	77502	109	1.47936595584
15	78379	110	1.47936595584
15	79240	111	1.47936595584
15	80101	112	1.47936595584
15	80970	113	1.47936595584
15	81839	114	1.47936595584
15	82700	115	1.47936595584
15	83553	116	1.47936595584
15	84398	117	1.47936595584
15	85251	118	1.47936595584
15	86096	119	1.47936595584
15	86949	120	1.47936595584
15	87802	121	1.47936595584
15	88655	122	1.47936595584
15	89508	123	1.47936595584
15	90377	124	1.47936595584
15	91254	125	1.47936595584
15	92131	126	1.47936595584
15	93008	127	1.47936595584
15	93885	128	1.47936595584
15	94770	129	1.47936595584
15	95655	130	1.47936595584
15	96549	131	1.47936595584
15	97442	132	1.47936595584
15	98335	133	1.47936595584
15	99220	134	1.47936595584
15	100105	135	1.47936595584
15	100990	136	1.47936595584
15	101875	137	1.47936595584
15	102760	138	1.47936595584
15	103637	139	1.47936595584
15	104514	140	1.47936595584
15	105391	141	1.47936595584
15	106268	142	1.47936595584
15	107145	143	1.47936595584
15	108022	144	1.47936595584
15	108891	145	1.47936595584
15	109760	146	1.47936595584
15	110629	147	1.47936595584
15	111498	148	1.47936595584
15	112367	149	1.47936595584
15	113236	150	1.47936595584
15	114097	151	1.47936595584
15	114958	152	1.47936595584
15	115819	153	1.47936595584
15	116680	154	1.47936595584
15	117533	155	1.47936595584
15	118386	156	1.47936595584
15	119223	157	1.47936595584
15	120060	158	1.47936595584
15	120889	159	1.47936595584
15	121718	160	1.47936595584
18	224	7	6544.7411069386
18	309	8	6544.7411069386
18	394	9	6542.8327836145
18	479	10	6539.7082380326
18	613	11	6535.3845433511
18	747	12	6529.9463628854
18	881	13	6523.3455521294
18	1076	14	6515.6662042744
18	1271	15	6506.5062596228
18	1466	16	6497.1770603648
18	1734	17	6487.1661697946
18	2002	18	6476.9033290813
18	2270	19	6466.1722703323
18	2623	20	6455.3010829245
18	2976	21	6444.3507541208
18	3329	22	6432.9581673784
18	3779	23	6421.5682899234
18	4229	24	6410.0480254188
18	4679	25	6398.4652141119
18	5238	26	6386.8573320575
18	5797	27	6374.7748988376
18	6356	28	6362.6837209533
18	7036	29	6350.5881432668
18	7724	30	6338.5693961746
18	8412	31	6326.7542821622
18	9291	32	6314.9383262142
18	10112	33	6305.2704880617
18	11564	34	6298.9005636206
18	12377	35	6293.3774849605
18	13898	36	6288.1135526356
18	14711	37	6282.8496203108
18	15562	38	6276.2041008843
18	16383	39	6271.8683603321
18	17204	40	6267.5326197799
18	18025	41	6263.1968792277
18	18854	42	6258.8611386755
18	19683	43	6254.5253981233
18	20512	44	6250.189657571
18	21349	45	6245.8539170188
18	22186	46	6241.5181764666
18	23023	47	6237.2288323302
18	23860	48	6233.2894216747
18	24697	49	6229.3500110192
18	25534	50	6225.4106003637
18	26379	51	6221.4711897082
18	27224	52	6217.5925656246
18	28069	53	6214.1757484265
18	28914	54	6210.7589312284
18	29759	55	6207.3421140303
18	30604	56	6203.9252968322
18	31457	57	6200.5084796341
18	32310	58	6197.091662436
18	33163	59	6193.6748452379
18	34024	60	6190.2580280398
18	34885	61	6186.8412108417
18	35746	62	6183.4243936436
18	36615	63	6180.0075764455
18	37484	64	6176.5907592474
18	38353	65	6173.1739420493
18	39222	66	6169.7571248512
18	40091	67	6166.3403076531
18	40960	68	6162.923490455
18	41837	69	6159.5066732569
18	42714	70	6156.0898560588
18	43591	71	6152.6730388607
18	44468	72	6149.2562216626
18	45345	73	6145.8394044645
18	46214	74	6142.4225872664
18	47099	75	6139.0057700683
18	47984	76	6135.5889528702
18	48869	77	6132.2321006681
18	49754	78	6128.9199329223
18	50639	79	6125.6077651765
18	51540	80	6122.2955974307
18	52442	81	6118.9834296849
18	53343	82	6115.6712619391
18	54244	83	6112.3590941933
18	55145	84	6109.0469264475
18	56046	85	6105.7347587017
18	56947	86	6102.4225909559
18	57848	87	6099.11042321
18	58749	88	6095.8155947603
18	59650	89	6092.534136706
18	60551	90	6089.2526786518
18	61452	91	6085.9712205975
18	62353	92	6082.6897625432
18	63254	93	6079.408304489
18	64155	94	6073.3430653463
18	65056	95	6070.0744533357
18	65957	96	6066.8058413252
18	66850	97	6063.5372293146
18	67743	98	6060.268617304
18	68636	99	6056.9170602205
18	69529	100	6053.0459627638
18	70422	101	6047.1195333464
18	71315	102	6043.8813678705
18	72200	103	6040.6432023946
18	73085	104	6037.4050369187
18	73970	105	6034.1668714428
18	74855	106	6030.9287059668
18	75740	107	6027.6905404909
18	76625	108	6024.452375015
18	77502	109	6021.2142095391
18	78379	110	6017.9760440632
18	79240	111	6014.7378785873
18	80101	112	6011.4997131113
18	80970	113	6008.2615476354
18	81839	114	6005.0233821595
18	82700	115	6001.7852166836
18	83553	116	5998.5470512077
18	84398	117	5998.2288857318
18	85251	118	5994.9907202558
18	86096	119	5991.7525547799
18	86949	120	5988.514389304
18	87802	121	5985.2762238281
18	88655	122	5982.0380583522
18	89508	123	5978.7998928763
18	90377	124	5975.5617274004
18	91254	125	5972.3235619244
18	92131	126	5969.0853964485
18	93008	127	5968.7772309726
18	93885	128	5965.5390654967
18	94770	129	5962.3009000208
18	95655	130	5959.0627345449
18	96549	131	5955.8245690689
18	97442	132	5952.5686449582
18	98335	133	5949.2682453941
18	99220	134	5945.96784583
18	100105	135	5942.6674462659
18	100990	136	5939.3670467018
18	101875	137	5936.0666471376
18	102760	138	5932.7662475735
18	103637	139	5929.4658480094
18	104514	140	5925.6102921846
18	105391	141	5921.7882070543
18	106268	142	5920.129691034
18	107145	143	5918.4711750138
18	108022	144	5916.600938413
18	108891	145	5913.6132141448
18	109760	146	5910.6254898766
18	110629	147	5907.6377656085
18	111498	148	5904.6500413403
18	112367	149	5902.3621406872
18	113236	150	5900.7466661783
18	114097	151	5900.4341422147
18	114958	152	5901.4222411777
18	115819	153	5903.7143486172
18	116680	154	5907.2141522927
18	117533	155	5911.8008620395
18	118386	156	5917.6815305307
18	119223	157	5924.2339871836
18	120060	158	5931.1390279923
18	120889	159	5938.111989411
18	121718	160	5944.9341012344
19	224	7	6531.1027401593
19	309	8	6531.1027401593
19	394	9	6528.5039475599
19	479	10	6524.2488793373
19	613	11	6518.3607860576
19	747	12	6510.9549639049
19	881	13	6501.9658487345
19	1076	14	6491.5079603245
19	1271	15	6480.9689557827
19	1466	16	6470.5542679247
19	1734	17	6460.8098654859
19	2002	18	6451.31818504
19	2270	19	6442.3859785419
19	2623	20	6433.5638107502
19	2976	21	6424.8638517375
19	3329	22	6416.773357939
19	3779	23	6408.6847881525
19	4229	24	6400.7252417985
19	4679	25	6393.0192860002
19	5238	26	6385.4192434372
19	5797	27	6378.5356868456
19	6356	28	6371.6471482781
19	7036	29	6364.7561030725
19	7724	30	6357.8037255143
19	8412	31	6350.4578885459
19	9291	32	6343.1115281191
19	10112	33	6337.1007217206
19	11564	34	6333.1403345084
19	12377	35	6328.8989682295
19	13898	36	6324.3071879519
19	14711	37	6319.7154076742
19	15562	38	6318.560009806
19	16383	39	6313.0719576489
19	17204	40	6307.5839054918
19	18025	41	6302.0958533347
19	18854	42	6296.6078011776
19	19683	43	6291.1197490205
19	20512	44	6285.6316968634
19	21349	45	6280.1436447063
19	22186	46	6274.6555925492
19	23023	47	6269.1334646875
19	23860	48	6263.3543292588
19	24697	49	6257.5751938302
19	25534	50	6251.7960584016
19	26379	51	6246.0169229729
19	27224	52	6240.2001535804
19	28069	53	6234.097471969
19	28914	54	6227.9947903576
19	29759	55	6221.8921087462
19	30604	56	6215.7894271348
19	31457	57	6209.6867455234
19	32310	58	6203.5840639121
19	33163	59	6197.4813823007
19	34024	60	6191.3787006893
19	34885	61	6185.2760190779
19	35746	62	6179.1733374665
19	36615	63	6173.0706558551
19	37484	64	6166.9679742437
19	38353	65	6160.8652926323
19	39222	66	6154.7626110209
19	40091	67	6148.6599294095
19	40960	68	6142.5572477981
19	41837	69	6136.4545661868
19	42714	70	6130.3518845754
19	43591	71	6124.249202964
19	44468	72	6118.1465213526
19	45345	73	6112.0438397412
19	46214	74	6105.9411581298
19	47099	75	6099.8384765184
19	47984	76	6093.735794907
19	48869	77	6087.600208579
19	49754	78	6081.4401024567
19	50639	79	6075.2799963343
19	51540	80	6069.1198902119
19	52442	81	6062.9597840896
19	53343	82	6056.7996779672
19	54244	83	6050.6395718448
19	55145	84	6044.4794657224
19	56046	85	6038.3193596001
19	56947	86	6032.1592534777
19	57848	87	6025.9991473553
19	58749	88	6019.8339012139
19	59650	89	6013.6355915558
19	60551	90	6007.4372818978
19	61452	91	6001.2389722397
19	62353	92	5995.0406625817
19	63254	93	5988.8423529236
19	64155	94	5984.4407106542
19	65056	95	5978.266567827
19	65957	96	5972.0924249998
19	66850	97	5965.9182821725
19	67743	98	5959.7441393453
19	68636	99	5953.6193900159
19	69529	100	5947.8040251429
19	70422	101	5944.5966615038
19	71315	102	5938.3910380882
19	72200	103	5932.1854146727
19	73085	104	5925.9797912572
19	73970	105	5919.7741678416
19	74855	106	5913.5685444261
19	75740	107	5907.3629210106
19	76625	108	5901.157297595
19	77502	109	5894.9516741795
19	78379	110	5888.746050764
19	79240	111	5882.5404273484
19	80101	112	5876.3348039329
19	80970	113	5870.1291805174
19	81839	114	5863.9235571018
19	82700	115	5857.7179336863
19	83553	116	5851.5123102708
19	84398	117	5843.7815034042
19	85251	118	5837.5755573337
19	86096	119	5831.3696112632
19	86949	120	5825.1636651927
19	87802	121	5818.9577191221
19	88655	122	5812.7517730516
19	89508	123	5806.5458269811
19	90377	124	5800.3398809106
19	91254	125	5794.13393484
19	92131	126	5787.9279887695
19	93008	127	5780.192042699
19	93885	128	5773.9860966285
19	94770	129	5767.7801505579
19	95655	130	5761.5742044874
19	96549	131	5755.3682584169
19	97442	132	5749.1304473313
19	98335	133	5742.9580899031
19	99220	134	5736.7857324748
19	100105	135	5730.6133750465
19	100990	136	5724.4410176183
19	101875	137	5718.26866019
19	102760	138	5712.0963027618
19	103637	139	5705.9239453335
19	104514	140	5700.4190882097
19	105391	141	5695.6389840802
19	106268	142	5688.8396586164
19	107145	143	5682.0403331527
19	108022	144	5675.3044956199
19	108891	145	5668.9743099101
19	109760	146	5662.6441242003
19	110629	147	5656.3139384905
19	111498	148	5649.9837527807
19	112367	149	5643.4004520812
19	113236	150	5636.604063145
19	114097	151	5629.6104713374
19	114958	152	5622.7418148251
19	115819	153	5616.1919038157
19	116680	154	5610.1392991826
19	117533	155	5604.8506234223
19	118386	156	5601.1856259705
19	119223	157	5598.9805867005
19	120060	158	5597.9956292167
19	120889	159	5598.6167625774
19	121718	160	5600.1106406812
20	309	8	4.0617275998512
20	394	9	6.1353786575448
20	479	10	8.1828713404717
20	613	11	10.026246972497
20	747	12	11.901434952405
20	881	13	13.915206189375
20	1076	14	13.970436098205
20	1271	15	13.886555414519
20	1466	16	13.953770344446
20	1734	17	13.961907363075
20	2002	18	13.899824502657
20	2270	19	13.896026535179
20	2623	20	13.923172058796
20	2976	21	13.971249081446
20	3329	22	13.986232199401
20	3779	23	13.947124665573
20	4229	24	13.963721167336
20	4679	25	13.884780393564
20	5238	26	13.917114249484
20	5797	27	13.95518664412
20	6356	28	13.943712053264
20	7036	29	13.871054257208
20	7724	30	13.976205671804
20	8412	31	13.883135057813
20	9291	32	9.3831350578135
20	10112	33	7
20	11564	34	7
20	12377	35	7
20	13898	36	7
20	14711	37	7
20	15562	38	7
20	16383	39	7
20	17204	40	7
20	18025	41	7
20	18854	42	7
20	19683	43	7
20	20512	44	7
20	21349	45	7
20	22186	46	7
20	23023	47	7
20	23860	48	7
20	24697	49	7
20	25534	50	7
20	26379	51	7
20	27224	52	7
20	28069	53	7
20	28914	54	7
20	29759	55	7
20	30604	56	7
20	31457	57	7
20	32310	58	7
20	33163	59	7
20	34024	60	7
20	34885	61	7
20	35746	62	7
20	36615	63	7
20	37484	64	7
20	38353	65	7
20	39222	66	7
20	40091	67	7
20	40960	68	7
20	41837	69	7
20	42714	70	7
20	43591	71	7
20	44468	72	7
20	45345	73	7
20	46214	74	7
20	47099	75	7
20	47984	76	7
20	48869	77	7
20	49754	78	7
20	50639	79	7
20	51540	80	7
20	52442	81	7
20	53343	82	7
20	54244	83	7
20	55145	84	7
20	56046	85	7
20	56947	86	7
20	57848	87	7
20	58749	88	7
20	59650	89	7
20	60551	90	7
20	61452	91	7
20	62353	92	7
20	63254	93	7
20	64155	94	7
20	65056	95	7
20	65957	96	7
20	66850	97	7
20	67743	98	7
20	68636	99	7
20	69529	100	7
20	70422	101	7
20	71315	102	7
20	72200	103	7
20	73085	104	7
20	73970	105	7
20	74855	106	7
20	75740	107	7
20	76625	108	7
20	77502	109	7
20	78379	110	7
20	79240	111	7
20	80101	112	7
20	80970	113	7
20	81839	114	7
20	82700	115	7
20	83553	116	7
20	84398	117	7
20	85251	118	7
20	86096	119	7
20	86949	120	7
20	87802	121	7
20	88655	122	7
20	89508	123	7
20	90377	124	7
20	91254	125	7
20	92131	126	7
20	93008	127	7
20	93885	128	7
20	94770	129	7
20	95655	130	7
20	96549	131	7
20	97442	132	7
20	98335	133	7
20	99220	134	7
20	100105	135	7
20	100990	136	7
20	101875	137	7
20	102760	138	7
20	103637	139	7
20	104514	140	7
20	105391	141	7
20	106268	142	7
20	107145	143	7
20	108022	144	7
20	108891	145	7
20	109760	146	7
20	110629	147	7
20	111498	148	7
20	112367	149	7
20	113236	150	7
20	114097	151	7
20	114958	152	7
20	115819	153	7
20	116680	154	7
20	117533	155	7
20	118386	156	7
20	119223	157	7
20	120060	158	7
20	120889	159	7
20	121718	160	7
21	394	9	2.0736510576936
21	479	10	2.0474926829268
21	613	11	1.8433756320248
21	747	12	1.8751879799087
21	881	13	2.0137712369696
21	1076	14	0.055229908830604
21	1271	15	-0.083880683686585
21	1466	16	0.067214929927141
21	1734	17	0.0081370186293501
21	2002	18	-0.062082860418595
21	2270	19	-0.0037979674781674
21	2623	20	0.027145523617509
21	2976	21	0.048077022649814
21	3329	22	0.014983117955271
21	3779	23	-0.039107533828355
21	4229	24	0.016596501762978
21	4679	25	-0.07894077377161
21	5238	26	0.032333855920006
21	5797	27	0.038072394635527
21	6356	28	-0.01147459085565
21	7036	29	-0.07265779605601
21	7724	30	0.10515141459648
21	8412	31	-0.093070613991003
21	9291	32	-4.5
21	10112	33	-2.3831350578135
21	11564	34	0
21	12377	35	0
21	13898	36	0
21	14711	37	0
21	15562	38	0
21	16383	39	0
21	17204	40	0
21	18025	41	0
21	18854	42	0
21	19683	43	0
21	20512	44	0
21	21349	45	0
21	22186	46	0
21	23023	47	0
21	23860	48	0
21	24697	49	0
21	25534	50	0
21	26379	51	0
21	27224	52	0
21	28069	53	0
21	28914	54	0
21	29759	55	0
21	30604	56	0
21	31457	57	0
21	32310	58	0
21	33163	59	0
21	34024	60	0
21	34885	61	0
21	35746	62	0
21	36615	63	0
21	37484	64	0
21	38353	65	0
21	39222	66	0
21	40091	67	0
21	40960	68	0
21	41837	69	0
21	42714	70	0
21	43591	71	0
21	44468	72	0
21	45345	73	0
21	46214	74	0
21	47099	75	0
21	47984	76	0
21	48869	77	0
21	49754	78	0
21	50639	79	0
21	51540	80	0
21	52442	81	0
21	53343	82	0
21	54244	83	0
21	55145	84	0
21	56046	85	0
21	56947	86	0
21	57848	87	0
21	58749	88	0
21	59650	89	0
21	60551	90	0
21	61452	91	0
21	62353	92	0
21	63254	93	0
21	64155	94	0
21	65056	95	0
21	65957	96	0
21	66850	97	0
21	67743	98	0
21	68636	99	0
21	69529	100	0
21	70422	101	0
21	71315	102	0
21	72200	103	0
21	73085	104	0
21	73970	105	0
21	74855	106	0
21	75740	107	0
21	76625	108	0
21	77502	109	0
21	78379	110	0
21	79240	111	0
21	80101	112	0
21	80970	113	0
21	81839	114	0
21	82700	115	0
21	83553	116	0
21	84398	117	0
21	85251	118	0
21	86096	119	0
21	86949	120	0
21	87802	121	0
21	88655	122	0
21	89508	123	0
21	90377	124	0
21	91254	125	0
21	92131	126	0
21	93008	127	0
21	93885	128	0
21	94770	129	0
21	95655	130	0
21	96549	131	0
21	97442	132	0
21	98335	133	0
21	99220	134	0
21	100105	135	0
21	100990	136	0
21	101875	137	0
21	102760	138	0
21	103637	139	0
21	104514	140	0
21	105391	141	0
21	106268	142	0
21	107145	143	0
21	108022	144	0
21	108891	145	0
21	109760	146	0
21	110629	147	0
21	111498	148	0
21	112367	149	0
21	113236	150	0
21	114097	151	0
21	114958	152	0
21	115819	153	0
21	116680	154	0
21	117533	155	0
21	118386	156	0
21	119223	157	0
21	120060	158	0
21	120889	159	0
21	121718	160	0
22	394	9	4.4934607714223
22	479	10	5.5931609271493
22	613	11	6.1409699278974
22	747	12	7.2183547368087
22	881	13	8.7834912543851
22	1076	14	2.2217712025271
22	1271	15	1.7465425899189
22	1466	16	2.2601489812464
22	1734	17	2.0623261375086
22	2002	18	1.8206438640178
22	2270	19	2.0155069204561
22	2623	20	2.1220775089348
22	2976	21	2.1977809426547
22	3329	22	2.0879396984702
22	3779	23	1.9019851770914
22	4229	24	2.0909835264368
22	4679	25	1.7629280817832
22	5238	26	2.1388221337706
22	5797	27	2.1623045039429
22	6356	28	1.9945274876866
22	7036	29	1.7827979459955
22	7724	30	2.3905874139578
22	8412	31	1.7155159939411
22	9291	32	0.973
22	10112	33	0.973
22	11564	34	1.47936595584
22	12377	35	1.47936595584
22	13898	36	1.47936595584
22	14711	37	1.47936595584
22	15562	38	1.47936595584
22	16383	39	1.47936595584
22	17204	40	1.47936595584
22	18025	41	1.47936595584
22	18854	42	1.47936595584
22	19683	43	1.47936595584
22	20512	44	1.47936595584
22	21349	45	1.47936595584
22	22186	46	1.47936595584
22	23023	47	1.47936595584
22	23860	48	1.47936595584
22	24697	49	1.47936595584
22	25534	50	1.47936595584
22	26379	51	1.47936595584
22	27224	52	1.47936595584
22	28069	53	1.47936595584
22	28914	54	1.47936595584
22	29759	55	1.47936595584
22	30604	56	1.47936595584
22	31457	57	1.47936595584
22	32310	58	1.47936595584
22	33163	59	1.47936595584
22	34024	60	1.47936595584
22	34885	61	1.47936595584
22	35746	62	1.47936595584
22	36615	63	1.47936595584
22	37484	64	1.47936595584
22	38353	65	1.47936595584
22	39222	66	1.47936595584
22	40091	67	1.47936595584
22	40960	68	1.47936595584
22	41837	69	1.47936595584
22	42714	70	1.47936595584
22	43591	71	1.47936595584
22	44468	72	1.47936595584
22	45345	73	1.47936595584
22	46214	74	1.47936595584
22	47099	75	1.47936595584
22	47984	76	1.47936595584
22	48869	77	1.47936595584
22	49754	78	1.47936595584
22	50639	79	1.47936595584
22	51540	80	1.47936595584
22	52442	81	1.47936595584
22	53343	82	1.47936595584
22	54244	83	1.47936595584
22	55145	84	1.47936595584
22	56046	85	1.47936595584
22	56947	86	1.47936595584
22	57848	87	1.47936595584
22	58749	88	1.47936595584
22	59650	89	1.47936595584
22	60551	90	1.47936595584
22	61452	91	1.47936595584
22	62353	92	1.47936595584
22	63254	93	1.47936595584
22	64155	94	1.47936595584
22	65056	95	1.47936595584
22	65957	96	1.47936595584
22	66850	97	1.47936595584
22	67743	98	1.47936595584
22	68636	99	1.47936595584
22	69529	100	1.47936595584
22	70422	101	1.47936595584
22	71315	102	1.47936595584
22	72200	103	1.47936595584
22	73085	104	1.47936595584
22	73970	105	1.47936595584
22	74855	106	1.47936595584
22	75740	107	1.47936595584
22	76625	108	1.47936595584
22	77502	109	1.47936595584
22	78379	110	1.47936595584
22	79240	111	1.47936595584
22	80101	112	1.47936595584
22	80970	113	1.47936595584
22	81839	114	1.47936595584
22	82700	115	1.47936595584
22	83553	116	1.47936595584
22	84398	117	1.47936595584
22	85251	118	1.47936595584
22	86096	119	1.47936595584
22	86949	120	1.47936595584
22	87802	121	1.47936595584
22	88655	122	1.47936595584
22	89508	123	1.47936595584
22	90377	124	1.47936595584
22	91254	125	1.47936595584
22	92131	126	1.47936595584
22	93008	127	1.47936595584
22	93885	128	1.47936595584
22	94770	129	1.47936595584
22	95655	130	1.47936595584
22	96549	131	1.47936595584
22	97442	132	1.47936595584
22	98335	133	1.47936595584
22	99220	134	1.47936595584
22	100105	135	1.47936595584
22	100990	136	1.47936595584
22	101875	137	1.47936595584
22	102760	138	1.47936595584
22	103637	139	1.47936595584
22	104514	140	1.47936595584
22	105391	141	1.47936595584
22	106268	142	1.47936595584
22	107145	143	1.47936595584
22	108022	144	1.47936595584
22	108891	145	1.47936595584
22	109760	146	1.47936595584
22	110629	147	1.47936595584
22	111498	148	1.47936595584
22	112367	149	1.47936595584
22	113236	150	1.47936595584
22	114097	151	1.47936595584
22	114958	152	1.47936595584
22	115819	153	1.47936595584
22	116680	154	1.47936595584
22	117533	155	1.47936595584
22	118386	156	1.47936595584
22	119223	157	1.47936595584
22	120060	158	1.47936595584
22	120889	159	1.47936595584
22	121718	160	1.47936595584
25	479	10	6544.7377055239
25	613	11	6544.7377055239
25	747	12	6542.9273016289
25	881	13	6539.9639913768
25	1076	14	6535.7573658815
25	1271	15	6530.3976728871
25	1466	16	6523.9098053222
25	1734	17	6516.2802822618
25	2002	18	6507.207454093
25	2270	19	6497.8938230276
25	2623	20	6487.9455250006
25	2976	21	6477.7070960672
25	3329	22	6467.0083205866
25	3779	23	6456.1600417282
25	4229	24	6445.2700494563
25	4679	25	6433.8859985061
25	5238	26	6422.4956622372
25	5797	27	6410.9851196305
25	6356	28	6399.3940102122
25	7036	29	6387.7963743589
25	7724	30	6375.7031928051
25	8412	31	6363.6202603525
25	9291	32	6351.5536868002
25	10112	33	6341.6014137028
25	11564	34	6335.1788900516
25	12377	35	6329.2467314013
25	13898	36	6323.314572751
25	14711	37	6317.3824141007
25	15562	38	6311.4502554503
25	16383	39	6305.5180968
25	17204	40	6299.5859381497
25	18025	41	6293.9856556705
25	18854	42	6288.7217233456
25	19683	43	6283.4577910208
25	20512	44	6276.8950460573
25	21349	45	6272.3692920021
25	22186	46	6268.0335514499
25	23023	47	6263.6978108976
25	23860	48	6259.3620703454
25	24697	49	6255.0263297932
25	25534	50	6250.690589241
25	26379	51	6246.3548486888
25	27224	52	6242.0191081365
25	28069	53	6237.6839738532
25	28914	54	6233.7445631977
25	29759	55	6229.8051525422
25	30604	56	6225.8657418867
25	31457	57	6221.9263312312
25	32310	58	6217.9873290853
25	33163	59	6214.5705118872
25	34024	60	6211.1536946891
25	34885	61	6207.736877491
25	35746	62	6204.3200602929
25	36615	63	6200.9032430948
25	37484	64	6197.4864258967
25	38353	65	6194.0696086986
25	39222	66	6190.6527915005
25	40091	67	6187.2359743024
25	40960	68	6183.8191571043
25	41837	69	6180.4023399062
25	42714	70	6176.9855227081
25	43591	71	6173.56870551
25	44468	72	6170.1518883119
25	45345	73	6166.7350711138
25	46214	74	6163.3182539157
25	47099	75	6159.9014367176
25	47984	76	6156.4846195195
25	48869	77	6153.0678023214
25	49754	78	6149.6509851233
25	50639	79	6146.2341679252
25	51540	80	6142.8173507271
25	52442	81	6139.400533529
25	53343	82	6135.9837163309
25	54244	83	6132.6147734088
25	55145	84	6129.302605663
25	56046	85	6125.9904379172
25	56947	86	6122.6782701714
25	57848	87	6119.3661024256
25	58749	88	6116.0539346798
25	59650	89	6112.741766934
25	60551	90	6109.4295991882
25	61452	91	6106.1174314424
25	62353	92	6102.8052636965
25	63254	93	6099.4930959507
25	64155	94	6096.1947194434
25	65056	95	6092.9132613891
25	65957	96	6089.6318033349
25	66850	97	6086.3503452806
25	67743	98	6083.0688872264
25	68636	99	6079.7874291721
25	69529	100	6073.7133079717
25	70422	101	6070.4446959611
25	71315	102	6067.1760839506
25	72200	103	6063.90747194
25	73085	104	6060.6388599294
25	73970	105	6057.3555476521
25	74855	106	6053.4844501954
25	75740	107	6047.5757582186
25	76625	108	6044.2481617522
25	77502	109	6041.0099962763
25	78379	110	6037.7718308004
25	79240	111	6034.5336653245
25	80101	112	6031.2954998486
25	80970	113	6028.0573343727
25	81839	114	6024.8191688967
25	82700	115	6021.5810034208
25	83553	116	6018.3428379449
25	84398	117	6015.104672469
25	85251	118	6011.8665069931
25	86096	119	6008.6283415172
25	86949	120	6005.3901760412
25	87802	121	6002.1520105653
25	88655	122	6001.8338450894
25	89508	123	5998.5956796135
25	90377	124	5995.3575141376
25	91254	125	5992.1193486617
25	92131	126	5988.8811831858
25	93008	127	5985.6430177098
25	93885	128	5982.4048522339
25	94770	129	5979.166686758
25	95655	130	5975.9285212821
25	96549	131	5972.6903558062
25	97442	132	5969.4521903303
25	98335	133	5969.1440248543
25	99220	134	5965.9058593784
25	100105	135	5962.6676939025
25	100990	136	5959.4295284266
25	101875	137	5956.1913629507
25	102760	138	5952.9531974748
25	103637	139	5949.6420886632
25	104514	140	5946.3416890991
25	105391	141	5943.041289535
25	106268	142	5939.7408899709
25	107145	143	5936.4404904067
25	108022	144	5933.1400908426
25	108891	145	5929.8396912785
25	109760	146	5926.3652590215
25	110629	147	5921.9760706868
25	111498	148	5920.3175546666
25	112367	149	5918.6590386463
25	113236	150	5916.9393642872
25	114097	151	5913.951640019
25	114958	152	5910.9639157508
25	115819	153	5907.9761914826
25	116680	154	5904.9884672145
25	117533	155	5902.5627501376
25	118386	156	5900.7917102462
25	119223	157	5900.4695424679
25	120060	158	5901.2366893506
25	120889	159	5903.326662276
25	121718	160	5906.7492725975
26	479	10	6531.0981080452
26	613	11	6531.0981080452
26	747	12	6528.6326640689
26	881	13	6524.5971693204
26	1076	14	6518.8685031833
26	1271	15	6511.5695668275
26	1466	16	6502.7342599377
26	1734	17	6492.3442239224
26	2002	18	6481.7517369553
26	2270	19	6471.3544287096
26	2623	20	6461.5497980551
26	2976	21	6452.0576203932
26	3329	22	6443.0644486436
26	3779	23	6434.2608715595
26	4229	24	6425.5166932193
26	4679	25	6417.4322611499
26	5238	26	6409.3433655348
26	5797	27	6401.3486834124
26	6356	28	6393.637206944
26	7036	29	6385.9542309439
26	7724	30	6379.0645508536
26	8412	31	6372.1807098412
26	9291	32	6365.3061887575
26	10112	33	6359.6362186585
26	11564	34	6355.6957386431
26	12377	35	6352.0075245243
26	13898	36	6348.3193104055
26	14711	37	6344.6310962867
26	15562	38	6340.9428821679
26	16383	39	6337.2546680491
26	17204	40	6333.5664539303
26	18025	41	6329.4294815605
26	18854	42	6324.8377012828
26	19683	43	6320.2459210052
26	20512	44	6318.83510905
26	21349	45	6313.7060221412
26	22186	46	6308.2179699841
26	23023	47	6302.729917827
26	23860	48	6297.2418656699
26	24697	49	6291.7538135128
26	25534	50	6286.2657613557
26	26379	51	6280.7777091986
26	27224	52	6275.2896570415
26	28069	53	6269.8011596121
26	28914	54	6264.0220241834
26	29759	55	6258.2428887548
26	30604	56	6252.4637533262
26	31457	57	6246.6846178975
26	32310	58	6240.9052295539
26	33163	59	6234.8025479425
26	34024	60	6228.6998663311
26	34885	61	6222.5971847197
26	35746	62	6216.4945031083
26	36615	63	6210.391821497
26	37484	64	6204.2891398856
26	38353	65	6198.1864582742
26	39222	66	6192.0837766628
26	40091	67	6185.9810950514
26	40960	68	6179.87841344
26	41837	69	6173.7757318286
26	42714	70	6167.6730502172
26	43591	71	6161.5703686058
26	44468	72	6155.4676869944
26	45345	73	6149.365005383
26	46214	74	6143.2623237717
26	47099	75	6137.1596421603
26	47984	76	6131.0569605489
26	48869	77	6124.9542789375
26	49754	78	6118.8515973261
26	50639	79	6112.7489157147
26	51540	80	6106.6462341033
26	52442	81	6100.5435524919
26	53343	82	6094.4408708805
26	54244	83	6088.3119191184
26	55145	84	6082.151812996
26	56046	85	6075.9917068736
26	56947	86	6069.8316007513
26	57848	87	6063.6714946289
26	58749	88	6057.5113885065
26	59650	89	6051.3512823842
26	60551	90	6045.1911762618
26	61452	91	6039.0310701394
26	62353	92	6032.8709640171
26	63254	93	6026.7108578947
26	64155	94	6020.5500256153
26	65056	95	6014.3517159573
26	65957	96	6008.1534062992
26	66850	97	6001.9550966412
26	67743	98	5995.7567869831
26	68636	99	5989.5584773251
26	69529	100	5985.1400689269
26	70422	101	5978.9659260997
26	71315	102	5972.7917832725
26	72200	103	5966.6176404453
26	73085	104	5960.443497618
26	73970	105	5954.2781087477
26	74855	106	5948.4627438746
26	75740	107	5945.2418572945
26	76625	108	5939.093962234
26	77502	109	5932.8883388185
26	78379	110	5926.682715403
26	79240	111	5920.4770919874
26	80101	112	5914.2714685719
26	80970	113	5908.0658451564
26	81839	114	5901.8602217408
26	82700	115	5895.6545983253
26	83553	116	5889.4489749098
26	84398	117	5883.2433514942
26	85251	118	5877.0377280787
26	86096	119	5870.8321046632
26	86949	120	5864.6264812476
26	87802	121	5858.4208578321
26	88655	122	5850.6904101684
26	89508	123	5844.4844640979
26	90377	124	5838.2785180273
26	91254	125	5832.0725719568
26	92131	126	5825.8666258863
26	93008	127	5819.6606798158
26	93885	128	5813.4547337452
26	94770	129	5807.2487876747
26	95655	130	5801.0428416042
26	96549	131	5794.8368955337
26	97442	132	5788.6309494631
26	98335	133	5780.8950033926
26	99220	134	5774.6890573221
26	100105	135	5768.4831112516
26	100990	136	5762.2771651811
26	101875	137	5756.0712191105
26	102760	138	5749.86527304
26	103637	139	5743.6572459398
26	104514	140	5737.4848885116
26	105391	141	5731.3125310833
26	106268	142	5725.1401736551
26	107145	143	5718.9678162268
26	108022	144	5712.7954587985
26	108891	145	5706.6231013703
26	109760	146	5700.6599947129
26	110629	147	5696.4091581181
26	111498	148	5689.6098326543
26	112367	149	5682.8105071906
26	113236	150	5676.0215292013
26	114097	151	5669.6913434916
26	114958	152	5663.3611577818
26	115819	153	5657.030972072
26	116680	154	5650.7007863622
26	117533	155	5644.1676265029
26	118386	156	5637.3947825433
26	119223	157	5630.4026503368
26	120060	158	5623.5127695996
26	120889	159	5616.883640793
26	121718	160	5610.7767810283
27	613	11	3.8961603405194
27	747	12	5.9431185399189
27	881	13	8.0030716841232
27	1076	14	9.8785809574073
27	1271	15	11.785061293136
27	1466	16	13.70330721112
27	1734	17	13.890208489886
27	2002	18	13.960404336064
27	2270	19	13.936193579829
27	2623	20	13.876016220436
27	2976	21	13.924580276464
27	3329	22	13.936363788142
27	3779	23	13.924611387956
27	4229	24	13.874047666781
27	4679	25	13.922268225446
27	5238	26	13.912634662511
27	5797	27	13.888621817816
27	6356	28	13.944497356312
27	7036	29	13.947440151037
27	7724	30	13.92052743519
27	8412	31	13.953315614574
27	9291	32	9.4533156145737
27	10112	33	7
27	11564	34	7
27	12377	35	7
27	13898	36	7
27	14711	37	7
27	15562	38	7
27	16383	39	7
27	17204	40	7
27	18025	41	7
27	18854	42	7
27	19683	43	7
27	20512	44	7
27	21349	45	7
27	22186	46	7
27	23023	47	7
27	23860	48	7
27	24697	49	7
27	25534	50	7
27	26379	51	7
27	27224	52	7
27	28069	53	7
27	28914	54	7
27	29759	55	7
27	30604	56	7
27	31457	57	7
27	32310	58	7
27	33163	59	7
27	34024	60	7
27	34885	61	7
27	35746	62	7
27	36615	63	7
27	37484	64	7
27	38353	65	7
27	39222	66	7
27	40091	67	7
27	40960	68	7
27	41837	69	7
27	42714	70	7
27	43591	71	7
27	44468	72	7
27	45345	73	7
27	46214	74	7
27	47099	75	7
27	47984	76	7
27	48869	77	7
27	49754	78	7
27	50639	79	7
27	51540	80	7
27	52442	81	7
27	53343	82	7
27	54244	83	7
27	55145	84	7
27	56046	85	7
27	56947	86	7
27	57848	87	7
27	58749	88	7
27	59650	89	7
27	60551	90	7
27	61452	91	7
27	62353	92	7
27	63254	93	7
27	64155	94	7
27	65056	95	7
27	65957	96	7
27	66850	97	7
27	67743	98	7
27	68636	99	7
27	69529	100	7
27	70422	101	7
27	71315	102	7
27	72200	103	7
27	73085	104	7
27	73970	105	7
27	74855	106	7
27	75740	107	7
27	76625	108	7
27	77502	109	7
27	78379	110	7
27	79240	111	7
27	80101	112	7
27	80970	113	7
27	81839	114	7
27	82700	115	7
27	83553	116	7
27	84398	117	7
27	85251	118	7
27	86096	119	7
27	86949	120	7
27	87802	121	7
27	88655	122	7
27	89508	123	7
27	90377	124	7
27	91254	125	7
27	92131	126	7
27	93008	127	7
27	93885	128	7
27	94770	129	7
27	95655	130	7
27	96549	131	7
27	97442	132	7
27	98335	133	7
27	99220	134	7
27	100105	135	7
27	100990	136	7
27	101875	137	7
27	102760	138	7
27	103637	139	7
27	104514	140	7
27	105391	141	7
27	106268	142	7
27	107145	143	7
27	108022	144	7
27	108891	145	7
27	109760	146	7
27	110629	147	7
27	111498	148	7
27	112367	149	7
27	113236	150	7
27	114097	151	7
27	114958	152	7
27	115819	153	7
27	116680	154	7
27	117533	155	7
27	118386	156	7
27	119223	157	7
27	120060	158	7
27	120889	159	7
27	121718	160	7
28	747	12	2.0469581993995
28	881	13	2.0599531442043
28	1076	14	1.8755092732841
28	1271	15	1.9064803357283
28	1466	16	1.9182459179847
28	1734	17	0.18690127876519
28	2002	18	0.070195846178104
28	2270	19	-0.024210756234826
28	2623	20	-0.0601773593924
28	2976	21	0.048564056027681
28	3329	22	0.011783511678223
28	3779	23	-0.01175240018638
28	4229	24	-0.050563721174839
28	4679	25	0.048220558664761
28	5238	26	-0.0096335629350506
28	5797	27	-0.024012844695244
28	6356	28	0.055875538496766
28	7036	29	0.002942794724369
28	7724	30	-0.026912715847139
28	8412	31	0.032788179384079
28	9291	32	-4.5
28	10112	33	-2.4533156145737
28	11564	34	0
28	12377	35	0
28	13898	36	0
28	14711	37	0
28	15562	38	0
28	16383	39	0
28	17204	40	0
28	18025	41	0
28	18854	42	0
28	19683	43	0
28	20512	44	0
28	21349	45	0
28	22186	46	0
28	23023	47	0
28	23860	48	0
28	24697	49	0
28	25534	50	0
28	26379	51	0
28	27224	52	0
28	28069	53	0
28	28914	54	0
28	29759	55	0
28	30604	56	0
28	31457	57	0
28	32310	58	0
28	33163	59	0
28	34024	60	0
28	34885	61	0
28	35746	62	0
28	36615	63	0
28	37484	64	0
28	38353	65	0
28	39222	66	0
28	40091	67	0
28	40960	68	0
28	41837	69	0
28	42714	70	0
28	43591	71	0
28	44468	72	0
28	45345	73	0
28	46214	74	0
28	47099	75	0
28	47984	76	0
28	48869	77	0
28	49754	78	0
28	50639	79	0
28	51540	80	0
28	52442	81	0
28	53343	82	0
28	54244	83	0
28	55145	84	0
28	56046	85	0
28	56947	86	0
28	57848	87	0
28	58749	88	0
28	59650	89	0
28	60551	90	0
28	61452	91	0
28	62353	92	0
28	63254	93	0
28	64155	94	0
28	65056	95	0
28	65957	96	0
28	66850	97	0
28	67743	98	0
28	68636	99	0
28	69529	100	0
28	70422	101	0
28	71315	102	0
28	72200	103	0
28	73085	104	0
28	73970	105	0
28	74855	106	0
28	75740	107	0
28	76625	108	0
28	77502	109	0
28	78379	110	0
28	79240	111	0
28	80101	112	0
28	80970	113	0
28	81839	114	0
28	82700	115	0
28	83553	116	0
28	84398	117	0
28	85251	118	0
28	86096	119	0
28	86949	120	0
28	87802	121	0
28	88655	122	0
28	89508	123	0
28	90377	124	0
28	91254	125	0
28	92131	126	0
28	93008	127	0
28	93885	128	0
28	94770	129	0
28	95655	130	0
28	96549	131	0
28	97442	132	0
28	98335	133	0
28	99220	134	0
28	100105	135	0
28	100990	136	0
28	101875	137	0
28	102760	138	0
28	103637	139	0
28	104514	140	0
28	105391	141	0
28	106268	142	0
28	107145	143	0
28	108022	144	0
28	108891	145	0
28	109760	146	0
28	110629	147	0
28	111498	148	0
28	112367	149	0
28	113236	150	0
28	114097	151	0
28	114958	152	0
28	115819	153	0
28	116680	154	0
28	117533	155	0
28	118386	156	0
28	119223	157	0
28	120060	158	0
28	120889	159	0
28	121718	160	0
29	747	12	4.3479287070716
29	881	13	5.5165352628411
29	1076	14	6.1406935669702
29	1271	15	7.2445020940405
29	1466	16	8.3437597808429
29	1734	17	2.6532937628312
29	2002	18	2.270963778215
29	2270	19	1.951004715823
29	2623	20	1.8249511816193
29	2976	21	2.1941071389215
29	3329	22	2.0719137351531
29	3779	23	1.991698821298
29	4229	24	1.8569243370768
29	4679	25	2.1926918025389
29	5238	26	1.9976163105569
29	5797	27	1.9470980573295
29	6356	28	2.2209439676854
29	7036	29	2.0433595908944
29	7724	30	1.9404334490117
29	8412	31	2.1443266191501
29	9291	32	0.973
29	10112	33	0.973
29	11564	34	1.47936595584
29	12377	35	1.47936595584
29	13898	36	1.47936595584
29	14711	37	1.47936595584
29	15562	38	1.47936595584
29	16383	39	1.47936595584
29	17204	40	1.47936595584
29	18025	41	1.47936595584
29	18854	42	1.47936595584
29	19683	43	1.47936595584
29	20512	44	1.47936595584
29	21349	45	1.47936595584
29	22186	46	1.47936595584
29	23023	47	1.47936595584
29	23860	48	1.47936595584
29	24697	49	1.47936595584
29	25534	50	1.47936595584
29	26379	51	1.47936595584
29	27224	52	1.47936595584
29	28069	53	1.47936595584
29	28914	54	1.47936595584
29	29759	55	1.47936595584
29	30604	56	1.47936595584
29	31457	57	1.47936595584
29	32310	58	1.47936595584
29	33163	59	1.47936595584
29	34024	60	1.47936595584
29	34885	61	1.47936595584
29	35746	62	1.47936595584
29	36615	63	1.47936595584
29	37484	64	1.47936595584
29	38353	65	1.47936595584
29	39222	66	1.47936595584
29	40091	67	1.47936595584
29	40960	68	1.47936595584
29	41837	69	1.47936595584
29	42714	70	1.47936595584
29	43591	71	1.47936595584
29	44468	72	1.47936595584
29	45345	73	1.47936595584
29	46214	74	1.47936595584
29	47099	75	1.47936595584
29	47984	76	1.47936595584
29	48869	77	1.47936595584
29	49754	78	1.47936595584
29	50639	79	1.47936595584
29	51540	80	1.47936595584
29	52442	81	1.47936595584
29	53343	82	1.47936595584
29	54244	83	1.47936595584
29	55145	84	1.47936595584
29	56046	85	1.47936595584
29	56947	86	1.47936595584
29	57848	87	1.47936595584
29	58749	88	1.47936595584
29	59650	89	1.47936595584
29	60551	90	1.47936595584
29	61452	91	1.47936595584
29	62353	92	1.47936595584
29	63254	93	1.47936595584
29	64155	94	1.47936595584
29	65056	95	1.47936595584
29	65957	96	1.47936595584
29	66850	97	1.47936595584
29	67743	98	1.47936595584
29	68636	99	1.47936595584
29	69529	100	1.47936595584
29	70422	101	1.47936595584
29	71315	102	1.47936595584
29	72200	103	1.47936595584
29	73085	104	1.47936595584
29	73970	105	1.47936595584
29	74855	106	1.47936595584
29	75740	107	1.47936595584
29	76625	108	1.47936595584
29	77502	109	1.47936595584
29	78379	110	1.47936595584
29	79240	111	1.47936595584
29	80101	112	1.47936595584
29	80970	113	1.47936595584
29	81839	114	1.47936595584
29	82700	115	1.47936595584
29	83553	116	1.47936595584
29	84398	117	1.47936595584
29	85251	118	1.47936595584
29	86096	119	1.47936595584
29	86949	120	1.47936595584
29	87802	121	1.47936595584
29	88655	122	1.47936595584
29	89508	123	1.47936595584
29	90377	124	1.47936595584
29	91254	125	1.47936595584
29	92131	126	1.47936595584
29	93008	127	1.47936595584
29	93885	128	1.47936595584
29	94770	129	1.47936595584
29	95655	130	1.47936595584
29	96549	131	1.47936595584
29	97442	132	1.47936595584
29	98335	133	1.47936595584
29	99220	134	1.47936595584
29	100105	135	1.47936595584
29	100990	136	1.47936595584
29	101875	137	1.47936595584
29	102760	138	1.47936595584
29	103637	139	1.47936595584
29	104514	140	1.47936595584
29	105391	141	1.47936595584
29	106268	142	1.47936595584
29	107145	143	1.47936595584
29	108022	144	1.47936595584
29	108891	145	1.47936595584
29	109760	146	1.47936595584
29	110629	147	1.47936595584
29	111498	148	1.47936595584
29	112367	149	1.47936595584
29	113236	150	1.47936595584
29	114097	151	1.47936595584
29	114958	152	1.47936595584
29	115819	153	1.47936595584
29	116680	154	1.47936595584
29	117533	155	1.47936595584
29	118386	156	1.47936595584
29	119223	157	1.47936595584
29	120060	158	1.47936595584
29	120889	159	1.47936595584
29	121718	160	1.47936595584
32	881	13	6544.7430498517
32	1076	14	6544.7430498517
32	1271	15	6542.8786544729
32	1466	16	6539.8417355186
32	1734	17	6535.5772621631
32	2002	18	6530.1853358183
32	2270	19	6523.6347191901
32	2623	20	6515.920450262
32	2976	21	6506.7955573436
32	3329	22	6497.4704456749
32	3779	23	6487.5033512161
32	4229	24	6477.2521637211
32	4679	25	6466.5218427154
32	5238	26	6455.6697431643
32	5797	27	6444.7417939395
32	6356	28	6433.3612257679
32	7036	29	6421.9550282544
32	7724	30	6410.4393649627
32	8412	31	6398.8501967189
32	9291	32	6387.2375320757
32	10112	33	6377.2656922103
32	11564	34	6370.7082442247
32	12377	35	6364.6388945029
32	13898	36	6358.5695447811
32	14711	37	6352.5001950594
32	15562	38	6346.4308453376
32	16383	39	6340.3666607097
32	17204	40	6334.4345020594
32	18025	41	6328.5023434091
32	18854	42	6322.5701847588
32	19683	43	6316.6380261085
32	20512	44	6310.7058674582
32	21349	45	6304.7737088078
32	22186	46	6298.8415501575
32	23023	47	6293.3251190521
32	23860	48	6288.0611867273
32	24697	49	6282.7972544024
32	25534	50	6276.1609686823
32	26379	51	6271.8252281301
32	27224	52	6267.4894875779
32	28069	53	6263.1537470257
32	28914	54	6258.8180064735
32	29759	55	6254.4822659212
32	30604	56	6250.146525369
32	31457	57	6245.8107848168
32	32310	58	6241.4750442646
32	33163	59	6237.1896428413
32	34024	60	6233.2502321858
32	34885	61	6229.3108215303
32	35746	62	6225.3714108748
[...]
71	77502	109	1.47936595584
71	78379	110	1.47936595584
71	79240	111	1.47936595584
71	80101	112	1.47936595584
71	80970	113	1.47936595584
71	81839	114	1.47936595584
71	82700	115	1.47936595584
71	83553	116	1.47936595584
71	84398	117	1.47936595584
71	85251	118	1.47936595584
71	86096	119	1.47936595584
71	86949	120	1.47936595584
71	87802	121	1.47936595584
71	88655	122	1.47936595584
71	89508	123	1.47936595584
71	90377	124	1.47936595584
71	91254	125	1.47936595584
71	92131	126	1.47936595584
71	93008	127	1.47936595584
71	93885	128	1.47936595584
71	94770	129	1.47936595584
71	95655	130	1.47936595584
71	96549	131	1.47936595584
71	97442	132	1.47936595584
71	98335	133	1.47936595584
71	99220	134	1.47936595584
71	100105	135	1.47936595584
71	100990	136	1.47936595584
71	101875	137	1.47936595584
71	102760	138	1.47936595584
71	103637	139	1.47936595584
71	104514	140	1.47936595584
71	105391	141	1.47936595584
71	106268	142	1.47936595584
71	107145	143	1.47936595584
71	108022	144	1.47936595584
71	108891	145	1.47936595584
71	109760	146	1.47936595584
71	110629	147	1.47936595584
71	111498	148	1.47936595584
71	112367	149	1.47936595584
71	113236	150	1.47936595584
71	114097	151	1.47936595584
71	114958	152	1.47936595584
71	115819	153	1.47936595584
71	116680	154	1.47936595584
71	117533	155	1.47936595584
71	118386	156	1.47936595584
71	119223	157	1.47936595584
71	120060	158	1.47936595584
71	120889	159	1.47936595584
71	121718	160	1.47936595584
74	8412	31	6544.7243726821
74	9291	32	6544.7243726821
74	10112	33	6542.7463987264
74	11564	34	6539.5623937226
74	12377	35	6535.2462319356
74	13898	36	6527.2989298086
74	14711	37	6521.2103260093
74	15562	38	6513.9891727694
74	16383	39	6505.0572826686
74	17204	40	6495.7951715582
74	18025	41	6485.931177638
74	18854	42	6475.7542933935
74	19683	43	6465.1353087699
74	20512	44	6454.3517587989
74	21349	45	6443.5484171134
74	22186	46	6432.2162781224
74	23023	47	6420.871468789
74	23860	48	6409.4762029856
74	24697	49	6397.8588982874
74	25534	50	6386.2301128318
74	26379	51	6374.0965964164
74	27224	52	6361.9526251587
74	28069	53	6349.8295445972
74	28914	54	6337.7418559027
74	29759	55	6325.8706342436
74	30604	56	6314.0354107242
74	31457	57	6302.1645771262
74	32310	58	6290.784153228
74	33163	59	6280.2427329836
74	34024	60	6269.1229631474
74	34885	61	6260.4762604587
74	35746	62	6251.8293870881
74	36615	63	6243.1872119336
74	37484	64	6234.5896331972
74	38353	65	6226.7448229653
74	39222	66	6218.887964365
74	40091	67	6211.5783886267
74	40960	68	6204.7579096524
74	41837	69	6197.9531664347
74	42714	70	6191.1338955693
74	43591	71	6184.3225102526
74	44468	72	6177.5045266
74	45345	73	6170.6948981873
74	46214	74	6163.8825123079
74	47099	75	6157.0756834023
74	47984	76	6150.2592472325
74	48869	77	6143.4474542397
74	49754	78	6136.6291354657
74	50639	79	6129.8580755618
74	51540	80	6123.2563600228
74	52442	81	6116.6427958069
74	53343	82	6110.0419604301
74	54244	83	6103.4312051418
74	55145	84	6096.8180313623
74	56046	85	6090.264305234
74	56947	86	6083.7563998665
74	57848	87	6077.2496871232
74	58749	88	6070.7469068486
74	59650	89	6064.2485953368
74	60551	90	6057.7449479435
74	61452	91	6048.1967801811
74	62353	92	6044.353172915
74	63254	93	6037.9000342077
74	64155	94	6031.4555945585
74	65056	95	6025.004387336
74	65957	96	6018.5544590803
74	66850	97	6012.1092568978
74	67743	98	6005.6665564775
74	68636	99	5999.2199913649
74	69529	100	5995.6934854083
74	70422	101	5989.2460229539
74	71315	102	5982.7975198187
74	72200	103	5976.3506854257
74	73085	104	5969.907466278
74	73970	105	5963.4617947694
74	74855	106	5957.027348376
74	75740	107	5950.5273571255
74	76625	108	5943.9589836764
74	77502	109	5937.3833483085
74	78379	110	5930.820324792
74	79240	111	5922.4859354995
74	80101	112	5919.1871580294
74	80970	113	5914.9329115956
74	81839	114	5908.9845870821
74	82700	115	5903.3640430083
74	83553	116	5900.743263262
74	84398	117	5900.7486916572
74	85251	118	5904.2837334345
74	86096	119	5910.6210219168
74	86949	120	5919.6585410458
74	87802	121	5930.4351594095
74	88655	122	5941.3894831767
74	89508	123	5951.4391529195
74	90377	124	5958.9949553886
74	91254	125	5964.663697185
74	92131	126	5961.6826910439
74	93008	127	5959.1381540827
74	93885	128	5950.6573819852
74	94770	129	5939.5911686793
74	95655	130	5928.4243475999
74	96549	131	5916.5750629491
74	97442	132	5904.5346875514
74	98335	133	5892.4958568437
74	99220	134	5881.5323347196
74	100105	135	5873.3355207195
74	100990	136	5867.6258162733
74	101875	137	5863.96999856
74	102760	138	5859.1633308202
74	103637	139	5852.6862287731
74	104514	140	5844.6048584471
74	105391	141	5834.5842255112
74	106268	142	5823.0016642696
74	107145	143	5810.9195758373
74	108022	144	5799.0764260279
74	108891	145	5787.2420960023
74	109760	146	5775.4062542813
74	110629	147	5763.5425303514
74	111498	148	5751.6703107314
74	112367	149	5739.8566836077
74	113236	150	5728.1677994328
74	114097	151	5716.4785078198
74	114958	152	5704.795708612
74	115819	153	5694.1809876164
74	116680	154	5685.1441836771
74	117533	155	5679.0226672945
74	118386	156	5675.0157967873
74	119223	157	5672.5045624099
74	120060	158	5668.8087054209
74	120889	159	5663.6629554057
74	121718	160	5656.2656725032
75	8412	31	6531.0799511164
75	9291	32	6531.0799511164
75	10112	33	6528.3863069038
75	11564	34	6524.0502656597
75	12377	35	6518.1724308253
75	13898	36	6512.9188445775
75	14711	37	6504.6261023692
75	15562	38	6494.7908159489
75	16383	39	6484.2921464233
75	17204	40	6473.9563127897
75	18025	41	6464.1845830912
75	18854	42	6454.7461310588
75	19683	43	6445.7973864079
75	20512	44	6437.0463974528
75	21349	45	6428.3442962675
75	22186	46	6420.2953003487
75	23023	47	6412.2373049342
75	23860	48	6404.3114345679
75	24697	49	6396.5796768512
75	25534	50	6388.8575048276
75	26379	51	6381.9441331297
75	27224	52	6375.0248045263
75	28069	53	6368.1173789149
75	28914	54	6361.1700513766
75	29759	55	6353.7904258953
75	30604	56	6346.4331782953
75	31457	57	6339.0537940482
75	32310	58	6331.0156266632
75	33163	59	6321.8690806987
75	34024	60	6314.9250927065
75	34885	61	6303.9800406581
75	35746	62	6293.0347725593
75	36615	63	6282.0954514927
75	37484	64	6271.123980791
75	38353	65	6259.6156244207
75	39222	66	6248.0895930634
75	40091	67	6236.2169574316
75	40960	68	6224.0345126778
75	41837	69	6211.8801744527
75	42714	70	6199.6998875709
75	43591	71	6187.5336855156
75	44468	72	6175.3556977977
75	45345	73	6163.1926338482
75	46214	74	6151.024644631
75	47099	75	6138.8665810401
75	47984	76	6126.6913573692
75	48869	77	6114.5244271403
75	49754	78	6102.3458408431
75	50639	79	6090.150112064
75	51540	80	6077.8732692407
75	52442	81	6065.5743920929
75	53343	82	6053.2991860583
75	54244	83	6041.0055325167
75	55145	84	6028.7073814417
75	56046	85	6016.4035595765
75	56947	86	6004.1106544795
75	57848	87	5991.8200021529
75	58749	88	5979.5367779405
75	59650	89	5967.2619948584
75	60551	90	5954.977132729
75	61452	91	5945.8530217656
75	62353	92	5932.1787273662
75	63254	93	5919.8112831757
75	64155	94	5907.4605107352
75	65056	95	5895.0967682364
75	65957	96	5882.7354768782
75	66850	97	5870.3832430422
75	67743	98	5858.0358038351
75	68636	99	5845.6809579427
75	69529	100	5831.7770604169
75	70422	101	5819.4204947683
75	71315	102	5807.0619346545
75	72200	103	5794.7065726861
75	73085	104	5782.3581393375
75	73970	105	5770.0050060377
75	74855	106	5757.6733856779
75	75740	107	5745.3128616503
75	76625	108	5733.0287888092
75	77502	109	5720.7311348374
75	78379	110	5708.4570673594
75	79240	111	5698.4994224036
75	80101	112	5684.9756087185
75	80970	113	5671.7703945531
75	81839	114	5659.167491657
75	82700	115	5647.2421290248
75	83553	116	5636.52791344
75	84398	117	5625.5403656496
75	85251	118	5615.1759677596
75	86096	119	5606.2110303811
75	86949	120	5600.1327068365
75	87802	121	5597.9329304246
75	88655	122	5599.1924564855
75	89508	123	5603.3007701648
75	90377	124	5611.1256175282
75	91254	125	5620.4980682792
75	92131	126	5631.8513205885
75	93008	127	5645.3127325155
75	93885	128	5656.0608292438
75	94770	129	5664.5211233234
75	95655	130	5672.8661710563
75	96549	131	5680.1848260014
75	97442	132	5687.1881867687
75	98335	133	5694.1906490573
75	99220	134	5700.5676512834
75	100105	135	5705.3013887179
75	100990	136	5708.389897001
75	101875	137	5710.3674114932
75	102760	138	5712.8673620797
75	103637	139	5716.7341729276
75	104514	140	5721.7837004315
75	105391	141	5727.5916289921
75	106268	142	5734.3048464775
75	107145	143	5741.3075884127
75	108022	144	5748.6676073278
75	108891	145	5756.0604289715
75	109760	146	5763.4336507689
75	110629	147	5770.7289790243
75	111498	148	5778.0295315119
75	112367	149	5785.2769964453
75	113236	150	5792.6609178193
75	114097	151	5800.0785244322
75	114958	152	5807.4920111969
75	115819	153	5816.3386829986
75	116680	154	5824.0813492477
75	117533	155	5830.2314326623
75	118386	156	5834.5124834268
75	119223	157	5837.5673924397
75	120060	158	5842.0138255516
75	120889	159	5846.92110589
75	121718	160	5847.905327396
76	9291	32	4.3050792244321
76	10112	33	6.1975557422044
76	11564	34	8.1388862196344
76	12377	35	9.271287065618
76	13898	36	11.224762994493
76	14711	37	13.124737303587
76	15562	38	13.922218923441
76	16383	39	13.900009780854
76	17204	40	13.929364156709
76	18025	41	13.910889271128
76	18854	42	13.958208518946
76	19683	43	13.947396367975
76	20512	44	13.883152721936
76	21349	45	13.895763937477
76	22186	46	13.978786378177
76	23023	47	13.964837945153
76	23860	48	13.997954029166
76	24697	49	13.901818847207
76	25534	50	13.953729418046
76	26379	51	13.960354656435
76	27224	52	13.889144299421
76	28069	53	13.893440325148
76	28914	54	13.971754168042
76	29759	55	13.891093919848
76	30604	56	13.964087803089
76	31457	57	13.928772129295
76	32310	58	13.886031354256
76	33163	59	13.993023822107
76	34024	60	13.9137244428
76	34885	61	13.962800811117
76	35746	62	13.885263822661
76	36615	63	13.904931934965
76	37484	64	13.880659426928
76	38353	65	13.914225475967
76	39222	66	13.960259600165
76	40091	67	13.934561521644
76	40960	68	13.874917799486
76	41837	69	13.984783096982
76	42714	70	13.959030305115
76	43591	71	13.946893814567
76	44468	72	13.92623267761
76	45345	73	13.98231436532
76	46214	74	13.870074563604
76	47099	75	13.948752973857
76	47984	76	13.978630988675
76	48869	77	13.899822444615
76	49754	78	13.975632182895
76	50639	79	13.921539206137
76	51540	80	13.989709244983
76	52442	81	13.99316570319
76	53343	82	13.89211074234
76	54244	83	13.976645737232
76	55145	84	13.918097764996
76	56046	85	13.961409127214
76	56947	86	13.91218076189
76	57848	87	13.918317752611
76	58749	88	13.993081870591
76	59650	89	13.875047843275
76	60551	90	13.909695935622
76	61452	91	13.888405348461
76	62353	92	13.975242193637
76	63254	93	13.953290833449
76	64155	94	13.986713072034
76	65056	95	13.982607256703
76	65957	96	13.98415818864
76	66850	97	13.875935347804
76	67743	98	13.890188595678
76	68636	99	13.90439619571
76	69529	100	13.943625908312
76	70422	101	13.927945964348
76	71315	102	13.904060846972
76	72200	103	13.91523109525
76	73085	104	13.884556899101
76	73970	105	13.962397826633
76	74855	106	13.909920718714
76	75740	107	13.93029641557
76	76625	108	13.979409108949
76	77502	109	13.967278993081
76	78379	110	13.880530380621
76	79240	111	13.905309694293
76	80101	112	13.981762391226
76	80970	113	13.911381862918
76	81839	114	11.558054884691
76	82700	115	10.993513207387
76	83553	116	10.992739981748
76	84398	117	10.993895242854
76	85251	118	10.994755550874
76	86096	119	11.109224402441
76	86949	120	11.00414561003
76	87802	121	11.093239632247
76	88655	122	10.989557802898
76	89508	123	11.10593029619
76	90377	124	11.133317377567
76	91254	125	13.166227461544
76	92131	126	13.970742840793
76	93008	127	13.960438932157
76	93885	128	13.967269097115
76	94770	129	13.949292455295
76	95655	130	13.914618484427
76	96549	131	13.954663941013
76	97442	132	13.914157203564
76	98335	133	11.165744276736
76	99220	134	8.0963037011391
76	100105	135	5.2779510817149
76	100990	136	4.0242765044417
76	101875	137	6.4773747420121
76	102760	138	8.504743255572
76	103637	139	10.439335657204
76	104514	140	12.528096401151
76	105391	141	13.918699096364
76	106268	142	13.981439988499
76	107145	143	13.884116310158
76	108022	144	13.877011245622
76	108891	145	13.995758989179
76	109760	146	13.879596803468
76	110629	147	13.918175342747
76	111498	148	13.807178902745
76	112367	149	13.788556904169
76	113236	150	13.784596810837
76	114097	151	13.844100122724
76	114958	152	13.825910849191
76	115819	153	10.451289884124
76	116680	154	7.3182449422355
76	117533	155	4.6791491635011
76	118386	156	4.4378691206228
76	119223	157	6.74962009011
76	120060	158	6.3711535924707
76	120889	159	7.6426471310416
76	121718	160	4.9537466685485
77	10112	33	1.8924765177723
77	11564	34	1.94133047743
77	12377	35	1.1324008459836
77	13898	36	1.9534759288747
77	14711	37	1.8999743090942
77	15562	38	0.7974816198537
77	16383	39	-0.022209142586217
77	17204	40	0.0293543758546
77	18025	41	-0.018474885581528
77	18854	42	0.047319247818088
77	19683	43	-0.010812150971033
77	20512	44	-0.064243646038232
77	21349	45	0.012611215540675
77	22186	46	0.08302244069986
77	23023	47	-0.013948433024343
77	23860	48	0.033116084013599
77	24697	49	-0.096135181959253
77	25534	50	0.051910570838954
77	26379	51	0.0066252383892422
77	27224	52	-0.071210357013623
77	28069	53	0.0042960257269442
77	28914	54	0.078313842893111
77	29759	55	-0.080660248193889
77	30604	56	0.072993883241432
77	31457	57	-0.035315673793665
77	32310	58	-0.04274077503942
77	33163	59	0.10699246785138
77	34024	60	-0.079299379307777
77	34885	61	0.049076368317474
77	35746	62	-0.077536988456266
77	36615	63	0.019668112304061
77	37484	64	-0.024272508036811
77	38353	65	0.033566049039363
77	39222	66	0.046034124197904
77	40091	67	-0.025698078521527
77	40960	68	-0.059643722157924
77	41837	69	0.10986529749585
77	42714	70	-0.025752791867127
77	43591	71	-0.012136490547563
77	44468	72	-0.020661136957351
77	45345	73	0.056081687710249
77	46214	74	-0.11223980171606
77	47099	75	0.078678410253486
77	47984	76	0.029878014817369
77	48869	77	-0.078808544059283
77	49754	78	0.075809738279785
77	50639	79	-0.054092976758257
77	51540	80	0.068170038845857
77	52442	81	0.0034564582072196
77	53343	82	-0.10105496085016
77	54244	83	0.08453499489231
77	55145	84	-0.058547972235829
77	56046	85	0.043311362217645
77	56947	86	-0.049228365323506
77	57848	87	0.0061369907204067
77	58749	88	0.074764117980376
77	59650	89	-0.11803402731661
77	60551	90	0.034648092347197
77	61452	91	-0.021290587161202
77	62353	92	0.086836845176293
77	63254	93	-0.021951360187959
77	64155	94	0.033422238584608
77	65056	95	-0.0041058153309859
77	65957	96	0.001550931937528
77	66850	97	-0.10822284083581
77	67743	98	0.014253247873857
77	68636	99	0.014207600031513
77	69529	100	0.039229712602683
77	70422	101	-0.015679943964351
77	71315	102	-0.023885117375759
77	72200	103	0.011170248277486
77	73085	104	-0.030674196148757
77	73970	105	0.077840927531943
77	74855	106	-0.05247710791882
77	75740	107	0.020375696856062
77	76625	108	0.049112693378701
77	77502	109	-0.012130115868057
77	78379	110	-0.086748612460214
77	79240	111	0.024779313672333
77	80101	112	0.076452696933412
77	80970	113	-0.070380528308451
77	81839	114	-2.3533269782271
77	82700	115	-0.56454167730408
77	83553	116	-0.00077322563854842
77	84398	117	0.001155261106323
77	85251	118	0.00086030801990944
77	86096	119	0.11446885156678
77	86949	120	-0.10507879241137
77	87802	121	0.08909402221674
77	88655	122	-0.10368182934821
77	89508	123	0.11637249329127
77	90377	124	0.027387081377674
77	91254	125	2.032910083977
77	92131	126	0.80451537924819
77	93008	127	-0.010303908635397
77	93885	128	0.0068301649577922
77	94770	129	-0.017976641820278
77	95655	130	-0.03467397086788
77	96549	131	0.04004545658594
77	97442	132	-0.040506737448741
77	98335	133	-2.7484129268281
77	99220	134	-3.0694405755967
77	100105	135	-2.8183526194243
77	100990	136	-1.2536745772732
77	101875	137	2.4530982375704
77	102760	138	2.0273685135599
77	103637	139	1.9345924016321
77	104514	140	2.0887607439468
77	105391	141	1.3906026952136
77	106268	142	0.062740892134606
77	107145	143	-0.097323678340762
77	108022	144	-0.0071050645364448
77	108891	145	0.11874774355674
77	109760	146	-0.11616218571086
77	110629	147	0.038578539278824
77	111498	148	-0.11099644000176
77	112367	149	-0.018621998575982
77	113236	150	-0.0039600933319885
77	114097	151	0.059503311887383
77	114958	152	-0.018189273533403
77	115819	153	-3.374620965067
77	116680	154	-3.1330449418883
77	117533	155	-2.6390957787344
77	118386	156	-0.24128004287827
77	119223	157	2.3117509694872
77	120060	158	-0.37846649763934
77	120889	159	1.2714935385709
77	121718	160	-2.6889004624931
78	10112	33	4.257584153018
78	11564	34	5.3602888178864
78	12377	35	4.1610803827162
78	13898	36	7.0666113483776
78	14711	37	7.9617281204362
78	15562	38	4.7066479453525
78	16383	39	1.9542330117763
78	17204	40	2.1301646042733
78	18025	41	1.9678017997794
78	18854	42	2.193746887631
78	19683	43	1.9971202785446
78	20512	44	1.811967810257
78	21349	45	2.0704328106675
78	22186	46	2.31636701278
78	23023	47	1.9883024489818
78	23860	48	2.1503551693022
78	24697	49	1.706730234321
78	25534	50	2.2086778901525
78	26379	51	2.0570780144046
78	27224	52	1.789164702776
78	28069	53	2.0423474258875
78	28914	54	2.2996516863978
78	29759	55	1.757693631299
78	30604	56	2.2808191468723
78	31457	57	1.9130133966404
78	32310	58	1.8841759822608
78	33163	59	2.3989450717035
78	34024	60	1.7641208707695
78	34885	61	2.2001816042663
78	35746	62	1.767665590026
78	36615	63	2.0950421557047
78	37484	64	1.9454659857284
78	38353	65	2.1426371868184
78	39222	66	2.1896562876341
78	40091	67	1.9458529038446
78	40960	68	1.8266399214013
78	41837	69	2.4075705254165
78	42714	70	1.9480167063698
78	43591	71	1.9926188804768
78	44468	72	1.9619598719899
78	45345	73	2.2260156234691
78	46214	74	1.6504053100781
78	47099	75	2.298091227254
78	47984	76	2.1373123900164
78	48869	77	1.7646150334123
78	49754	78	2.2916876689675
78	50639	79	1.8493377870991
78	51540	80	2.2676292946702
78	52442	81	2.0498033077371
78	53343	82	1.6894958260207
78	54244	83	2.3211998549187
78	55145	84	1.834088616145
78	56046	85	2.1806253098191
78	56947	86	1.8648162588475
78	57848	87	2.0510816487971
78	58749	88	2.2902677996176
78	59650	89	1.6314007087568
78	60551	90	2.1457663513577
78	61452	91	1.9561889794294
78	62353	92	2.3287802852386
78	63254	93	1.9602488822808
78	64155	94	2.1501452503066
78	65056	95	2.0232292305971
78	65957	96	2.042450826289
78	66850	97	1.664275223166
78	67743	98	2.0753454392403
78	68636	99	2.07668711113
78	69529	100	2.1649063718553
78	70422	101	1.9788461333835
78	71315	102	1.9490077442777
78	72200	103	2.067641892293
78	73085	104	1.9244181820196
78	73970	105	2.2969265800006
78	74855	106	1.8537221095859
78	75740	107	2.1001230704066
78	76625	108	2.2022000246398
78	77502	109	1.9946646152469
78	78379	110	1.7364580716465
78	79240	111	2.1122109655871
78	80101	112	2.2945938794154
78	80970	113	1.7938286963022
78	81839	114	0.973
78	82700	115	0.973
78	83553	116	1.760954304297
78	84398	117	1.7661580928272
78	85251	118	1.7654471051845
78	86096	119	2.0790345418833
78	86949	120	1.4852664807936
78	87802	121	2.0094376634199
78	88655	122	1.4881431191556
78	89508	123	2.0837672781839
78	90377	124	1.8480356094801
78	91254	125	8.4065279659401
78	92131	126	4.7446126584033
78	93008	127	2.0001292304252
78	93885	128	2.058486057781
78	94770	129	1.9732236013049
78	95655	130	1.9138427562957
78	96549	131	2.1688818360121
78	97442	132	1.8942405225564
78	98335	133	0.973
78	99220	134	0.973
78	100105	135	0.973
78	100990	136	0.973
78	101875	137	5.2769765207272
78	102760	138	5.7324779569577
78	103637	139	6.5858929092236
78	104514	140	8.2025374804778
78	105391	141	6.6951818160844
78	106268	142	2.2483526228829
78	107145	143	1.7013626783809
78	108022	144	2.0025306949787
78	108891	145	2.4389462802341
78	109760	146	1.6379948105268
78	110629	147	2.1598849687241
78	111498	148	1.6498717459207
78	112367	149	1.9554532036707
78	113236	150	2.0037794792539
78	114097	151	2.221481219229
78	114958	152	1.9605029076939
78	115819	153	0.973
78	116680	154	0.973
78	117533	155	0.973
78	118386	156	0.973
78	119223	157	5.2244369418029
78	120060	158	0.973
78	120889	159	3.8618558401566
78	121718	160	0.973
